
##########################################################################
#               Crystallographic Information Format file
#               Produced by PyCifRW module
#
#  This is a CIF file.  CIF has been adopted by the International
#  Union of Crystallography as the standard for data archiving and
#  transmission.
#
#  For information on this file format, follow the CIF links at
#  http://www.iucr.org
##########################################################################

data_image0

_cell_length_a                          11.0311
_cell_length_b                          11.5197
_cell_length_c                          14.7821
_cell_angle_alpha                       112.933
_cell_angle_beta                        101.698
_cell_angle_gamma                       90
_symmetry_space_group_name_H-M          'P 1'
_symmetry_int_tables_number             1
loop_
  _symmetry_equiv_pos_as_xyz
         'x, y, z' 
loop_
  _atom_site_label
  _atom_site_occupancy
  _atom_site_fract_x
  _atom_site_fract_y
  _atom_site_fract_z
  _atom_site_thermal_displace_type
  _atom_site_B_iso_or_equiv
  _atom_site_type_symbol
  _atom_site_charge
         C1        1.0000    0.84445   0.83875   0.26290   Biso      1.000     C          -0.10702300000000001          
         C2        1.0000    0.48909   0.72629   0.57918   Biso      1.000     C          0.013429  
         C3        1.0000    0.36025   0.57385   0.43730   Biso      1.000     C          -0.054751           
         C4        1.0000    0.46495   0.57835   0.40130   Biso      1.000     C          0.022691  
         C5        1.0000    0.45692   0.49172   0.30184   Biso      1.000     C          -0.15603399999999998          
         C6        1.0000    0.34445   0.42415   0.26290   Biso      1.000     C          -0.110319           
         C7        1.0000    0.30207   0.32027   0.16134   Biso      1.000     C          0.6478189999999999  
         C8        1.0000    0.88050   0.96090   0.82080   Biso      1.000     C          0.581255  
         C9        1.0000    0.90618   0.92258   0.71956   Biso      1.000     C          -0.095877           
         C10       1.0000    0.00718   0.87578   0.68296   Biso      1.000     C          -0.140694           
         C11       1.0000    0.37445   0.65765   0.54010   Biso      1.000     C          -0.06005599999999999          
         C12       1.0000    0.87445   0.88245   0.54010   Biso      1.000     C          -0.05826900000000001          
         C13       1.0000    0.86025   0.86345   0.43730   Biso      1.000     C          -0.054326           
         C14       1.0000    0.96495   0.82295   0.40130   Biso      1.000     C          0.024992  
         C15       1.0000    0.95692   0.81012   0.30184   Biso      1.000     C          -0.15265  
         C16       1.0000    0.53505   0.42165   0.59870   Biso      1.000     C          0.024209  
         C17       1.0000    0.80207   0.84107   0.16134   Biso      1.000     C          0.649651  
         C18       1.0000    0.61950   0.14010   0.17920   Biso      1.000     C          0.581937  
         C19       1.0000    0.59382   0.20302   0.28044   Biso      1.000     C          -0.096683           
         C20       1.0000    0.49282   0.19282   0.31704   Biso      1.000     C          -0.139925           
         C21       1.0000    0.62555   0.34235   0.45990   Biso      1.000     C          -0.056559000000000005         
         C22       1.0000    0.98909   0.85289   0.57918   Biso      1.000     C          0.01589   
         C23       1.0000    0.50718   0.80718   0.68296   Biso      1.000     C          -0.14623699999999998          
         C24       1.0000    0.40618   0.79698   0.71956   Biso      1.000     C          -0.09579800000000001          
         C25       1.0000    0.38050   0.85990   0.82080   Biso      1.000     C          0.583489  
         C26       1.0000    0.69793   0.67973   0.83866   Biso      1.000     C          0.6501819999999999  
         C27       1.0000    0.65555   0.57585   0.73710   Biso      1.000     C          -0.10712999999999999          
         C28       1.0000    0.54308   0.50828   0.69816   Biso      1.000     C          -0.15349100000000002          
         C29       1.0000    0.51091   0.27371   0.42082   Biso      1.000     C          0.014387  
         C30       1.0000    0.11950   0.03910   0.17920   Biso      1.000     C          0.582832  
         C31       1.0000    0.09382   0.07742   0.28044   Biso      1.000     C          -0.095012           
         C32       1.0000    0.99282   0.12422   0.31704   Biso      1.000     C          -0.146991           
         C33       1.0000    0.63975   0.42615   0.56270   Biso      1.000     C          -0.054984000000000005         
         C34       1.0000    0.01091   0.14711   0.42082   Biso      1.000     C          0.014922  
         C35       1.0000    0.13975   0.13655   0.56270   Biso      1.000     C          -0.054087           
         C36       1.0000    0.03505   0.17705   0.59870   Biso      1.000     C          0.023467  
         C37       1.0000    0.04308   0.18988   0.69816   Biso      1.000     C          -0.155211           
         C38       1.0000    0.15555   0.16125   0.73710   Biso      1.000     C          -0.11020899999999999          
         C39       1.0000    0.19793   0.15893   0.83866   Biso      1.000     C          0.6472899999999999  
         C40       1.0000    0.12555   0.11755   0.45990   Biso      1.000     C          -0.061764           
         H1        1.0000    0.42110   0.13990   0.27920   Biso      1.000     H          0.154973  
         H2        1.0000    0.02030   0.78530   0.26720   Biso      1.000     H          0.15173   
         H3        1.0000    0.07890   0.86070   0.72080   Biso      1.000     H          0.154763  
         H4        1.0000    0.52030   0.48190   0.26720   Biso      1.000     H          0.15201099999999998           
         H5        1.0000    0.57890   0.86010   0.72080   Biso      1.000     H          0.153157  
         H6        1.0000    0.97970   0.21470   0.73280   Biso      1.000     H          0.150973  
         H7        1.0000    0.92110   0.13930   0.27920   Biso      1.000     H          0.152949  
         H8        1.0000    0.47970   0.51810   0.73280   Biso      1.000     H          0.15278699999999998           
         Mn1       1.0000    0.08460   0.12920   0.00508   Biso      1.000     Mn          1.116176  
         Mn2       1.0000    0.58460   0.87588   0.00508   Biso      1.000     Mn          1.14825   
         Mn3       1.0000    0.91540   0.87080   0.99492   Biso      1.000     Mn          1.1479780000000002  
         Mn4       1.0000    0.41540   0.12412   0.99492   Biso      1.000     Mn          1.116479  
         O1        1.0000    0.19351   0.27155   0.13926   Biso      1.000     O          -0.54415  
         O2        1.0000    0.38021   0.29171   0.10714   Biso      1.000     O          -0.55594  
         O3        1.0000    0.27536   0.83708   0.83102   Biso      1.000     O          -0.45971000000000006          
         O4        1.0000    0.46725   0.93554   0.89190   Biso      1.000     O          -0.588883           
         O5        1.0000    0.69351   0.86771   0.13926   Biso      1.000     O          -0.55813  
         O6        1.0000    0.88021   0.81543   0.10714   Biso      1.000     O          -0.5638479999999999           
         O7        1.0000    0.77536   0.99394   0.83102   Biso      1.000     O          -0.439116           
         O8        1.0000    0.96725   0.95636   0.89190   Biso      1.000     O          -0.58022  
         O9        1.0000    0.80649   0.72845   0.86074   Biso      1.000     O          -0.558027           
         O10       1.0000    0.61979   0.70829   0.89286   Biso      1.000     O          -0.564181           
         O11       1.0000    0.72464   0.16292   0.16898   Biso      1.000     O          -0.43966000000000005          
         O12       1.0000    0.53275   0.06446   0.10810   Biso      1.000     O          -0.580831           
         O13       1.0000    0.03275   0.04364   0.10810   Biso      1.000     O          -0.5883229999999999           
         O14       1.0000    0.22464   0.00606   0.16898   Biso      1.000     O          -0.45916899999999994          
         O15       1.0000    0.11979   0.18457   0.89286   Biso      1.000     O          -0.555608           
         O16       1.0000    0.30649   0.13229   0.86074   Biso      1.000     O          -0.544261           
         O17       1.0000    0.25000   0.01500   0.00000   Biso      1.000     O          -0.5110100000000001           
         O18       1.0000    0.75000   0.98500   0.00000   Biso      1.000     O          -0.45791099999999996          
         S1        1.0000    0.41816   0.31036   0.50936   Biso      1.000     S          0.049752  
         S2        1.0000    0.75334   0.53627   0.65326   Biso      1.000     S          0.12411099999999999           
         S3        1.0000    0.71194   0.31180   0.37066   Biso      1.000     S          0.12731199999999998           
         S4        1.0000    0.08184   0.80100   0.49064   Biso      1.000     S          0.049317  
         S5        1.0000    0.74666   0.88301   0.34674   Biso      1.000     S          0.123947  
         S6        1.0000    0.78806   0.94114   0.62934   Biso      1.000     S          0.127072  
         S7        1.0000    0.58184   0.68964   0.49064   Biso      1.000     S          0.043946  
         S8        1.0000    0.24666   0.46373   0.34674   Biso      1.000     S          0.122423  
         S9        1.0000    0.28806   0.68820   0.62934   Biso      1.000     S          0.12448699999999999           
         S10       1.0000    0.91816   0.19900   0.50936   Biso      1.000     S          0.043512  
         S11       1.0000    0.25334   0.11699   0.65326   Biso      1.000     S          0.12225799999999999           
         S12       1.0000    0.21194   0.05886   0.37066   Biso      1.000     S          0.124252 