
##########################################################################
#               Crystallographic Information Format file
#               Produced by PyCifRW module
#
#  This is a CIF file.  CIF has been adopted by the International
#  Union of Crystallography as the standard for data archiving and
#  transmission.
#
#  For information on this file format, follow the CIF links at
#  http://www.iucr.org
##########################################################################

data_image0

_cell_length_a                          8.6296
_cell_length_b                          9.608
_cell_length_c                          14.497
_cell_angle_alpha                       90
_cell_angle_beta                        93.097
_cell_angle_gamma                       90
_symmetry_space_group_name_H-M          'P 1'
_symmetry_int_tables_number             1
loop_
  _symmetry_equiv_pos_as_xyz
         'x, y, z' 
loop_
  _atom_site_label
  _atom_site_occupancy
  _atom_site_fract_x
  _atom_site_fract_y
  _atom_site_fract_z
  _atom_site_thermal_displace_type
  _atom_site_B_iso_or_equiv
  _atom_site_type_symbol
  _atom_site_charge
         C1        1.0000    0.94000   0.52530   0.91030   Biso      1.000     C          -0.022238           
         C2        1.0000    0.46950   0.86620   0.47150   Biso      1.000     C          -0.153633           
         C3        1.0000    0.52620   0.88910   0.56110   Biso      1.000     C          -0.026489999999999996         
         C4        1.0000    0.56000   0.02530   0.58970   Biso      1.000     C          -0.022237           
         C5        1.0000    0.54240   0.76760   0.62660   Biso      1.000     C          0.596279  
         C6        1.0000    0.63830   0.05600   0.68310   Biso      1.000     C          0.587643  
         C7        1.0000    0.43590   0.53760   0.97520   Biso      1.000     C          -0.19137300000000002          
         C8        1.0000    0.71580   0.92940   0.01150   Biso      1.000     C          0.127189  
         C9        1.0000    0.59990   0.80790   0.90870   Biso      1.000     C          0.114935  
         C10       1.0000    0.03050   0.36620   0.02850   Biso      1.000     C          -0.153633           
         C11       1.0000    0.97380   0.38910   0.93890   Biso      1.000     C          -0.026489999999999996         
         C12       1.0000    0.95760   0.26760   0.87340   Biso      1.000     C          0.596279  
         C13       1.0000    0.86170   0.55600   0.81690   Biso      1.000     C          0.5876439999999999  
         C14       1.0000    0.93590   0.96240   0.47520   Biso      1.000     C          -0.19137300000000002          
         C15       1.0000    0.91380   0.81380   0.50930   Biso      1.000     C          -0.118129           
         C16       1.0000    0.90010   0.30790   0.59130   Biso      1.000     C          0.114936  
         C17       1.0000    0.21580   0.57060   0.51150   Biso      1.000     C          0.127189  
         C18       1.0000    0.53050   0.13380   0.52850   Biso      1.000     C          -0.153633           
         C19       1.0000    0.47380   0.11090   0.43890   Biso      1.000     C          -0.026489999999999996         
         C20       1.0000    0.44000   0.97470   0.41030   Biso      1.000     C          -0.022237           
         C21       1.0000    0.45760   0.23240   0.37340   Biso      1.000     C          0.596279  
         C22       1.0000    0.36170   0.94400   0.31690   Biso      1.000     C          0.587643  
         C23       1.0000    0.56410   0.46240   0.02480   Biso      1.000     C          -0.19137300000000002          
         C24       1.0000    0.58620   0.31380   0.99070   Biso      1.000     C          -0.118129           
         C25       1.0000    0.28420   0.07060   0.98850   Biso      1.000     C          0.127189  
         C26       1.0000    0.40010   0.19210   0.09130   Biso      1.000     C          0.114935  
         C27       1.0000    0.96950   0.63380   0.97150   Biso      1.000     C          -0.153633           
         C28       1.0000    0.02620   0.61090   0.06110   Biso      1.000     C          -0.026491000000000004         
         C29       1.0000    0.06000   0.47470   0.08970   Biso      1.000     C          -0.022238           
         C30       1.0000    0.04240   0.73240   0.12660   Biso      1.000     C          0.596278  
         C31       1.0000    0.13830   0.44400   0.18310   Biso      1.000     C          0.5876439999999999  
         C32       1.0000    0.09990   0.69210   0.40870   Biso      1.000     C          0.114935  
         C33       1.0000    0.78420   0.42940   0.48850   Biso      1.000     C          0.12718800000000002           
         C34       1.0000    0.41380   0.68620   0.00930   Biso      1.000     C          -0.118129           
         C35       1.0000    0.06410   0.03760   0.52480   Biso      1.000     C          -0.19137300000000002          
         C36       1.0000    0.08620   0.18620   0.49070   Biso      1.000     C          -0.118129           
         H1        1.0000    0.04400   0.04040   0.59140   Biso      1.000     H          0.107874  
         H2        1.0000    0.16170   0.98520   0.51820   Biso      1.000     H          0.10929100000000001           
         H3        1.0000    0.09770   0.18450   0.42310   Biso      1.000     H          0.136247  
         H4        1.0000    0.18310   0.22470   0.52010   Biso      1.000     H          0.114146  
         H5        1.0000    0.71580   0.49580   0.45970   Biso      1.000     H          0.10618   
         H6        1.0000    0.45030   0.77340   0.45130   Biso      1.000     H          0.104227  
         H7        1.0000    0.45600   0.54040   0.90860   Biso      1.000     H          0.107874  
         H8        1.0000    0.33830   0.48520   0.98180   Biso      1.000     H          0.10929200000000001           
         H9        1.0000    0.40230   0.68450   0.07690   Biso      1.000     H          0.136247  
         H10       1.0000    0.31690   0.72470   0.97990   Biso      1.000     H          0.114146  
         H11       1.0000    0.78420   0.99580   0.04030   Biso      1.000     H          0.10618   
         H12       1.0000    0.56560   0.76680   0.85160   Biso      1.000     H          0.129553  
         H13       1.0000    0.04970   0.27340   0.04870   Biso      1.000     H          0.104227  
         H14       1.0000    0.95600   0.95960   0.40860   Biso      1.000     H          0.107874  
         H15       1.0000    0.93440   0.26680   0.64840   Biso      1.000     H          0.129553  
         H16       1.0000    0.90230   0.81550   0.57690   Biso      1.000     H          0.136247  
         H17       1.0000    0.83830   0.01480   0.48180   Biso      1.000     H          0.10929200000000001           
         H18       1.0000    0.43440   0.23320   0.14840   Biso      1.000     H          0.129553  
         H19       1.0000    0.21580   0.00420   0.95970   Biso      1.000     H          0.10618   
         H20       1.0000    0.68310   0.27530   0.02010   Biso      1.000     H          0.114146  
         H21       1.0000    0.59770   0.31550   0.92310   Biso      1.000     H          0.136247  
         H22       1.0000    0.66170   0.51480   0.01820   Biso      1.000     H          0.10929200000000001           
         H23       1.0000    0.95030   0.72660   0.95130   Biso      1.000     H          0.104227  
         H24       1.0000    0.54970   0.22660   0.54870   Biso      1.000     H          0.104227  
         H25       1.0000    0.06560   0.73320   0.35160   Biso      1.000     H          0.129553  
         H26       1.0000    0.28420   0.50420   0.54030   Biso      1.000     H          0.10618   
         H27       1.0000    0.81690   0.77530   0.47990   Biso      1.000     H          0.114146  
         H28       1.0000    0.54400   0.45960   0.09140   Biso      1.000     H          0.107874  
         N1        1.0000    0.95520   0.27860   0.51110   Biso      1.000     N          0.182008  
         N2        1.0000    0.21060   0.59630   0.41900   Biso      1.000     N          -0.334457           
         N3        1.0000    0.11940   0.64440   0.55710   Biso      1.000     N          -0.232652           
         N4        1.0000    0.04480   0.72140   0.48890   Biso      1.000     N          0.182016  
         N5        1.0000    0.71060   0.90370   0.91900   Biso      1.000     N          -0.334457           
         N6        1.0000    0.61940   0.85560   0.05710   Biso      1.000     N          -0.232652           
         N7        1.0000    0.54480   0.77860   0.98890   Biso      1.000     N          0.182017  
         N8        1.0000    0.38060   0.14440   0.94290   Biso      1.000     N          -0.232652           
         N9        1.0000    0.88060   0.35560   0.44290   Biso      1.000     N          -0.232643           
         N10       1.0000    0.28940   0.09630   0.08100   Biso      1.000     N          -0.334456           
         N11       1.0000    0.45520   0.22140   0.01110   Biso      1.000     N          0.182016  
         N12       1.0000    0.78940   0.40370   0.58100   Biso      1.000     N          -0.334457           
         O1        1.0000    0.90900   0.64930   0.76670   Biso      1.000     O          -0.562253           
         O2        1.0000    0.50700   0.22480   0.29540   Biso      1.000     O          -0.553071           
         O3        1.0000    0.39420   0.33920   0.40710   Biso      1.000     O          -0.581781           
         O4        1.0000    0.99300   0.72480   0.20460   Biso      1.000     O          -0.55307  
         O5        1.0000    0.40900   0.85070   0.26670   Biso      1.000     O          -0.562253           
         O6        1.0000    0.74190   0.48240   0.79680   Biso      1.000     O          -0.5611619999999999           
         O7        1.0000    0.24190   0.01760   0.29680   Biso      1.000     O          -0.561161           
         O8        1.0000    0.10580   0.83920   0.09290   Biso      1.000     O          -0.581781           
         O9        1.0000    0.00700   0.27520   0.79540   Biso      1.000     O          -0.553071           
         O10       1.0000    0.09100   0.35070   0.23330   Biso      1.000     O          -0.562253           
         O11       1.0000    0.59100   0.14930   0.73330   Biso      1.000     O          -0.562253           
         O12       1.0000    0.75810   0.98240   0.70320   Biso      1.000     O          -0.5611619999999999           
         O13       1.0000    0.49300   0.77520   0.70460   Biso      1.000     O          -0.55307  
         O14       1.0000    0.60580   0.66080   0.59290   Biso      1.000     O          -0.581781           
         O15       1.0000    0.25810   0.51760   0.20320   Biso      1.000     O          -0.5611619999999999           
         O16       1.0000    0.89420   0.16080   0.90710   Biso      1.000     O          -0.581781           
         Zn1       1.0000    0.15674   0.99706   0.17169   Biso      1.000     Zn          0.9216559999999999  
         Zn2       1.0000    0.34326   0.49706   0.32831   Biso      1.000     Zn          0.9216559999999999  
         Zn3       1.0000    0.84326   0.00294   0.82831   Biso      1.000     Zn          0.9216559999999999  
         Zn4       1.0000    0.65674   0.50294   0.67169   Biso      1.000     Zn          0.9216559999999999 