
##########################################################################
#               Crystallographic Information Format file
#               Produced by PyCifRW module
#
#  This is a CIF file.  CIF has been adopted by the International
#  Union of Crystallography as the standard for data archiving and
#  transmission.
#
#  For information on this file format, follow the CIF links at
#  http://www.iucr.org
##########################################################################

data_image0

_cell_length_a                          18.6107
_cell_length_b                          18.6107
_cell_length_c                          4.8022
_cell_angle_alpha                       90
_cell_angle_beta                        90
_cell_angle_gamma                       90
_symmetry_space_group_name_H-M          'P 1'
_symmetry_int_tables_number             1
loop_
  _symmetry_equiv_pos_as_xyz
         'x, y, z' 
loop_
  _atom_site_label
  _atom_site_occupancy
  _atom_site_fract_x
  _atom_site_fract_y
  _atom_site_fract_z
  _atom_site_thermal_displace_type
  _atom_site_B_iso_or_equiv
  _atom_site_type_symbol
  _atom_site_charge
         C1        1.0000    0.98349   0.69415   0.39900   Biso      1.000     C          -0.13533199999999998          
         C2        1.0000    0.88145   0.78027   0.54260   Biso      1.000     C          0.603847  
         C3        1.0000    0.11855   0.21973   0.45740   Biso      1.000     C          0.6038319999999999  
         C4        1.0000    0.94415   0.76651   0.35100   Biso      1.000     C          -0.13533199999999998          
         C5        1.0000    0.96973   0.13145   0.79260   Biso      1.000     C          0.603839  
         C6        1.0000    0.55585   0.73349   0.14900   Biso      1.000     C          -0.13533599999999998          
         C7        1.0000    0.98349   0.19415   0.60100   Biso      1.000     C          -0.135329           
         C8        1.0000    0.61855   0.71973   0.95740   Biso      1.000     C          0.603854  
         C9        1.0000    0.46973   0.63145   0.29260   Biso      1.000     C          0.6038279999999999  
         C10       1.0000    0.48349   0.69415   0.10100   Biso      1.000     C          -0.13533199999999998          
         C11       1.0000    0.44415   0.76651   0.14900   Biso      1.000     C          -0.135331           
         C12       1.0000    0.53027   0.86855   0.29260   Biso      1.000     C          0.603823  
         C13       1.0000    0.38145   0.78027   0.95740   Biso      1.000     C          0.603831  
         C14       1.0000    0.51651   0.80585   0.10100   Biso      1.000     C          -0.135327           
         C15       1.0000    0.94415   0.26651   0.64900   Biso      1.000     C          -0.135331           
         C16       1.0000    0.03027   0.36855   0.79260   Biso      1.000     C          0.603834  
         C17       1.0000    0.05585   0.23349   0.64900   Biso      1.000     C          -0.135324           
         C18       1.0000    0.88145   0.28027   0.45740   Biso      1.000     C          0.603824  
         C19       1.0000    0.44415   0.26651   0.85100   Biso      1.000     C          -0.135329           
         C20       1.0000    0.03027   0.86855   0.20740   Biso      1.000     C          0.6038279999999999  
         C21       1.0000    0.96973   0.63145   0.20740   Biso      1.000     C          0.603827  
         C22       1.0000    0.48349   0.19415   0.89900   Biso      1.000     C          -0.135324           
         C23       1.0000    0.46973   0.13145   0.70740   Biso      1.000     C          0.6038279999999999  
         C24       1.0000    0.38145   0.28027   0.04260   Biso      1.000     C          0.6038319999999999  
         C25       1.0000    0.51651   0.30585   0.89900   Biso      1.000     C          -0.135326           
         C26       1.0000    0.01651   0.30585   0.60100   Biso      1.000     C          -0.13533  
         C27       1.0000    0.53027   0.36855   0.70740   Biso      1.000     C          0.603837  
         C28       1.0000    0.05585   0.73349   0.35100   Biso      1.000     C          -0.135328           
         C29       1.0000    0.61855   0.21973   0.04260   Biso      1.000     C          0.6038220000000001  
         C30       1.0000    0.01651   0.80585   0.39900   Biso      1.000     C          -0.13533399999999998          
         C31       1.0000    0.55585   0.23349   0.85100   Biso      1.000     C          -0.13533699999999999          
         C32       1.0000    0.11855   0.71973   0.54260   Biso      1.000     C          0.603833  
         Cu1       1.0000    0.00000   0.50000   0.00000   Biso      1.000     Cu          0.787239  
         Cu2       1.0000    0.50000   0.50000   0.50000   Biso      1.000     Cu          0.787234  
         Cu3       1.0000    0.00000   0.00000   0.00000   Biso      1.000     Cu          0.787257  
         Cu4       1.0000    0.25000   0.25000   0.25000   Biso      1.000     Cu          0.787239  
         Cu5       1.0000    0.25000   0.75000   0.75000   Biso      1.000     Cu          0.787245  
         Cu6       1.0000    0.75000   0.75000   0.75000   Biso      1.000     Cu          0.787305  
         Cu7       1.0000    0.50000   0.00000   0.50000   Biso      1.000     Cu          0.7872100000000001  
         Cu8       1.0000    0.75000   0.25000   0.25000   Biso      1.000     Cu          0.787248  
         H1        1.0000    0.47910   0.17920   0.09400   Biso      1.000     H          0.12049800000000001           
         H2        1.0000    0.52090   0.32080   0.09400   Biso      1.000     H          0.120499  
         H3        1.0000    0.42920   0.27090   0.65600   Biso      1.000     H          0.12049800000000001           
         H4        1.0000    0.92920   0.77090   0.15600   Biso      1.000     H          0.120502  
         H5        1.0000    0.47910   0.67920   0.90600   Biso      1.000     H          0.120499  
         H6        1.0000    0.07080   0.22910   0.84400   Biso      1.000     H          0.12049800000000001           
         H7        1.0000    0.07080   0.72910   0.15600   Biso      1.000     H          0.12049800000000001           
         H8        1.0000    0.57080   0.72910   0.34400   Biso      1.000     H          0.120503  
         H9        1.0000    0.97910   0.17920   0.40600   Biso      1.000     H          0.1205    
         H10       1.0000    0.52090   0.82080   0.90600   Biso      1.000     H          0.12049800000000001           
         H11       1.0000    0.57080   0.22910   0.65600   Biso      1.000     H          0.120496  
         H12       1.0000    0.02090   0.82080   0.59400   Biso      1.000     H          0.120499  
         H13       1.0000    0.97910   0.67920   0.59400   Biso      1.000     H          0.12049800000000001           
         H14       1.0000    0.92920   0.27090   0.84400   Biso      1.000     H          0.120497  
         H15       1.0000    0.02090   0.32080   0.40600   Biso      1.000     H          0.1205    
         H16       1.0000    0.42920   0.77090   0.34400   Biso      1.000     H          0.12049800000000001           
         O1        1.0000    0.88191   0.32838   0.27670   Biso      1.000     O          -0.46601000000000004          
         O2        1.0000    0.48663   0.42027   0.74360   Biso      1.000     O          -0.516563           
         O3        1.0000    0.61809   0.17162   0.22330   Biso      1.000     O          -0.46599300000000005          
         O4        1.0000    0.11809   0.67162   0.72330   Biso      1.000     O          -0.466087           
         O5        1.0000    0.57838   0.36809   0.52670   Biso      1.000     O          -0.46610799999999997          
         O6        1.0000    0.17027   0.76337   0.50640   Biso      1.000     O          -0.516566           
         O7        1.0000    0.51337   0.07973   0.74360   Biso      1.000     O          -0.516576           
         O8        1.0000    0.42162   0.13191   0.52670   Biso      1.000     O          -0.466071           
         O9        1.0000    0.01337   0.57973   0.24360   Biso      1.000     O          -0.516547           
         O10       1.0000    0.92162   0.63191   0.02670   Biso      1.000     O          -0.46603100000000003          
         O11       1.0000    0.67027   0.26337   0.00640   Biso      1.000     O          -0.5165270000000001           
         O12       1.0000    0.32973   0.23663   0.00640   Biso      1.000     O          -0.516564           
         O13       1.0000    0.88191   0.82838   0.72330   Biso      1.000     O          -0.466103           
         O14       1.0000    0.07838   0.86809   0.02670   Biso      1.000     O          -0.46603999999999995          
         O15       1.0000    0.32973   0.73663   0.99360   Biso      1.000     O          -0.516556           
         O16       1.0000    0.98663   0.42027   0.75640   Biso      1.000     O          -0.516569           
         O17       1.0000    0.38191   0.82838   0.77670   Biso      1.000     O          -0.466056           
         O18       1.0000    0.57838   0.86809   0.47330   Biso      1.000     O          -0.466059           
         O19       1.0000    0.48663   0.92027   0.25640   Biso      1.000     O          -0.516559           
         O20       1.0000    0.67027   0.76337   0.99360   Biso      1.000     O          -0.5165930000000001           
         O21       1.0000    0.61809   0.67162   0.77670   Biso      1.000     O          -0.466099           
         O22       1.0000    0.38191   0.32838   0.22330   Biso      1.000     O          -0.46607299999999996          
         O23       1.0000    0.42162   0.63191   0.47330   Biso      1.000     O          -0.466059           
         O24       1.0000    0.17027   0.26337   0.49360   Biso      1.000     O          -0.516572           
         O25       1.0000    0.92162   0.13191   0.97330   Biso      1.000     O          -0.466087           
         O26       1.0000    0.01337   0.07973   0.75640   Biso      1.000     O          -0.516556           
         O27       1.0000    0.11809   0.17162   0.27670   Biso      1.000     O          -0.466087           
         O28       1.0000    0.82973   0.23663   0.49360   Biso      1.000     O          -0.516537           
         O29       1.0000    0.82973   0.73663   0.50640   Biso      1.000     O          -0.516596           
         O30       1.0000    0.98663   0.92027   0.24360   Biso      1.000     O          -0.5165489999999999           
         O31       1.0000    0.51337   0.57973   0.25640   Biso      1.000     O          -0.516556           
         O32       1.0000    0.07838   0.36809   0.97330   Biso      1.000     O          -0.46604700000000004 