
##########################################################################
#               Crystallographic Information Format file
#               Produced by PyCifRW module
#
#  This is a CIF file.  CIF has been adopted by the International
#  Union of Crystallography as the standard for data archiving and
#  transmission.
#
#  For information on this file format, follow the CIF links at
#  http://www.iucr.org
##########################################################################

data_image0

_cell_length_a                          12.351
_cell_length_b                          13.958
_cell_length_c                          18.507
_cell_angle_alpha                       90
_cell_angle_beta                        90
_cell_angle_gamma                       113.79
_symmetry_space_group_name_H-M          'P 1'
_symmetry_int_tables_number             1
loop_
  _symmetry_equiv_pos_as_xyz
         'x, y, z' 
loop_
  _atom_site_label
  _atom_site_occupancy
  _atom_site_fract_x
  _atom_site_fract_y
  _atom_site_fract_z
  _atom_site_thermal_displace_type
  _atom_site_B_iso_or_equiv
  _atom_site_type_symbol
  _atom_site_charge
         C1        1.0000    0.63290   0.28020   0.17870   Biso      1.000     C          -0.097914           
         C2        1.0000    0.22590   0.26740   0.35610   Biso      1.000     C          -0.033673           
         C3        1.0000    0.69400   0.89390   0.01600   Biso      1.000     C          0.591898  
         C4        1.0000    0.67800   0.71700   0.05370   Biso      1.000     C          -0.09842  
         C5        1.0000    0.62390   0.60870   0.04880   Biso      1.000     C          -0.145774           
         C6        1.0000    0.52780   0.55850   0.00400   Biso      1.000     C          0.079469  
         C7        1.0000    0.48150   0.62080   0.96710   Biso      1.000     C          -0.14385  
         C8        1.0000    0.53370   0.72890   0.97300   Biso      1.000     C          -0.087487           
         C9        1.0000    0.63270   0.77740   0.01530   Biso      1.000     C          -0.027052           
         C10       1.0000    0.82480   0.81760   0.39550   Biso      1.000     C          0.629943  
         C11       1.0000    0.70430   0.17270   0.09640   Biso      1.000     C          0.618942  
         C12       1.0000    0.88420   0.59800   0.30650   Biso      1.000     C          -0.150642           
         C13       1.0000    0.89780   0.68470   0.34790   Biso      1.000     C          -0.097445           
         C14       1.0000    0.81360   0.72630   0.34710   Biso      1.000     C          -0.030626           
         C15       1.0000    0.71470   0.67970   0.30250   Biso      1.000     C          -0.104437           
         C16       1.0000    0.70210   0.59370   0.26020   Biso      1.000     C          -0.162625           
         C17       1.0000    0.78560   0.54990   0.26280   Biso      1.000     C          0.078075  
         C18       1.0000    0.46630   0.27110   0.02700   Biso      1.000     C          -0.087483           
         C19       1.0000    0.65380   0.37220   0.21670   Biso      1.000     C          -0.154259           
         C20       1.0000    0.76540   0.45200   0.22200   Biso      1.000     C          0.07434   
         C21       1.0000    0.85830   0.43660   0.18910   Biso      1.000     C          -0.156568           
         C22       1.0000    0.83850   0.34590   0.15000   Biso      1.000     C          -0.105257           
         C23       1.0000    0.72590   0.26740   0.14390   Biso      1.000     C          -0.033668           
         C24       1.0000    0.80600   0.10610   0.51600   Biso      1.000     C          0.5919    
         C25       1.0000    0.82200   0.28300   0.55370   Biso      1.000     C          -0.098422           
         C26       1.0000    0.87610   0.39130   0.54880   Biso      1.000     C          -0.14577  
         C27       1.0000    0.97220   0.44150   0.50400   Biso      1.000     C          0.079472  
         C28       1.0000    0.01850   0.37920   0.46710   Biso      1.000     C          -0.143846           
         C29       1.0000    0.96630   0.27110   0.47300   Biso      1.000     C          -0.087484           
         C30       1.0000    0.86730   0.22260   0.51530   Biso      1.000     C          -0.027053           
         C31       1.0000    0.33850   0.34590   0.35000   Biso      1.000     C          -0.105254           
         C32       1.0000    0.67520   0.18240   0.89550   Biso      1.000     C          0.629949  
         C33       1.0000    0.35830   0.43660   0.31090   Biso      1.000     C          -0.156563           
         C34       1.0000    0.15380   0.37220   0.28330   Biso      1.000     C          -0.154258           
         C35       1.0000    0.29570   0.82730   0.90360   Biso      1.000     C          0.61896   
         C36       1.0000    0.11580   0.40200   0.69350   Biso      1.000     C          -0.150632           
         C37       1.0000    0.10220   0.31530   0.65210   Biso      1.000     C          -0.09744  
         C38       1.0000    0.18640   0.27370   0.65290   Biso      1.000     C          -0.030617           
         C39       1.0000    0.28530   0.32030   0.69750   Biso      1.000     C          -0.104434           
         C40       1.0000    0.29790   0.40630   0.73980   Biso      1.000     C          -0.162617           
         C41       1.0000    0.21440   0.45010   0.73720   Biso      1.000     C          0.078076  
         C42       1.0000    0.36710   0.71980   0.82130   Biso      1.000     C          -0.097895           
         C43       1.0000    0.34620   0.62780   0.78330   Biso      1.000     C          -0.154252           
         C44       1.0000    0.23460   0.54800   0.77800   Biso      1.000     C          0.074342  
         C45       1.0000    0.14170   0.56340   0.81090   Biso      1.000     C          -0.156561           
         C46       1.0000    0.16150   0.65410   0.85000   Biso      1.000     C          -0.105249           
         C47       1.0000    0.27410   0.73260   0.85610   Biso      1.000     C          -0.033667           
         C48       1.0000    0.19400   0.89390   0.48400   Biso      1.000     C          0.591903  
         C49       1.0000    0.17800   0.71700   0.44630   Biso      1.000     C          -0.098424           
         C50       1.0000    0.12390   0.60870   0.45120   Biso      1.000     C          -0.145773           
         C51       1.0000    0.02780   0.55850   0.49600   Biso      1.000     C          0.079469  
         C52       1.0000    0.98150   0.62080   0.53290   Biso      1.000     C          -0.143845           
         C53       1.0000    0.03370   0.72890   0.52700   Biso      1.000     C          -0.08748  
         C54       1.0000    0.13270   0.77740   0.48470   Biso      1.000     C          -0.027053           
         C55       1.0000    0.32480   0.81760   0.10450   Biso      1.000     C          0.629957  
         C56       1.0000    0.20430   0.17270   0.40360   Biso      1.000     C          0.618956  
         C57       1.0000    0.38420   0.59800   0.19350   Biso      1.000     C          -0.150632           
         C58       1.0000    0.39780   0.68470   0.15210   Biso      1.000     C          -0.097437           
         C59       1.0000    0.31360   0.72630   0.15290   Biso      1.000     C          -0.030613           
         C60       1.0000    0.21470   0.67970   0.19750   Biso      1.000     C          -0.10443  
         C61       1.0000    0.20210   0.59370   0.23980   Biso      1.000     C          -0.162619           
         C62       1.0000    0.28560   0.54990   0.23720   Biso      1.000     C          0.078076  
         C63       1.0000    0.13290   0.28020   0.32130   Biso      1.000     C          -0.097901           
         C64       1.0000    0.26540   0.45200   0.27800   Biso      1.000     C          0.074341  
         C65       1.0000    0.79570   0.82730   0.59640   Biso      1.000     C          0.618943  
         C66       1.0000    0.61580   0.40200   0.80650   Biso      1.000     C          -0.150641           
         C67       1.0000    0.60220   0.31530   0.84790   Biso      1.000     C          -0.097442           
         C68       1.0000    0.30600   0.10610   0.98400   Biso      1.000     C          0.5919    
         C69       1.0000    0.32200   0.28300   0.94630   Biso      1.000     C          -0.098425           
         C70       1.0000    0.37610   0.39130   0.95120   Biso      1.000     C          -0.145774           
         C71       1.0000    0.47220   0.44150   0.99600   Biso      1.000     C          0.07947   
         C72       1.0000    0.51850   0.37920   0.03290   Biso      1.000     C          -0.143846           
         C73       1.0000    0.17520   0.18240   0.60450   Biso      1.000     C          0.629954  
         C74       1.0000    0.77410   0.73260   0.64390   Biso      1.000     C          -0.033679           
         C75       1.0000    0.66150   0.65410   0.65000   Biso      1.000     C          -0.105259           
         C76       1.0000    0.36730   0.22260   0.98470   Biso      1.000     C          -0.027053           
         C77       1.0000    0.73460   0.54800   0.72200   Biso      1.000     C          0.074339  
         C78       1.0000    0.84620   0.62780   0.71670   Biso      1.000     C          -0.154267           
         C79       1.0000    0.86710   0.71980   0.67870   Biso      1.000     C          -0.097918           
         C80       1.0000    0.71440   0.45010   0.76280   Biso      1.000     C          0.078073  
         C81       1.0000    0.64170   0.56340   0.68910   Biso      1.000     C          -0.156571           
         C82       1.0000    0.78530   0.32030   0.80250   Biso      1.000     C          -0.104437           
         C83       1.0000    0.68640   0.27370   0.84710   Biso      1.000     C          -0.030616           
         C84       1.0000    0.79790   0.40630   0.76020   Biso      1.000     C          -0.162627           
         H1        1.0000    0.96470   0.71540   0.37670   Biso      1.000     H          0.106329  
         H2        1.0000    0.65690   0.70650   0.30120   Biso      1.000     H          0.115967  
         H3        1.0000    0.63710   0.56480   0.22970   Biso      1.000     H          0.106357  
         H4        1.0000    0.55690   0.22760   0.17670   Biso      1.000     H          0.12272   
         H5        1.0000    0.59060   0.38010   0.23930   Biso      1.000     H          0.112453  
         H6        1.0000    0.93490   0.48770   0.19330   Biso      1.000     H          0.110915  
         H7        1.0000    0.90180   0.33790   0.12770   Biso      1.000     H          0.117325  
         H8        1.0000    0.75560   0.25120   0.58280   Biso      1.000     H          0.119196  
         H9        1.0000    0.84690   0.43130   0.57630   Biso      1.000     H          0.112392  
         H10       1.0000    0.99850   0.23090   0.44810   Biso      1.000     H          0.115578  
         H11       1.0000    0.94220   0.57140   0.30810   Biso      1.000     H          0.110368  
         H12       1.0000    0.53530   0.28460   0.87670   Biso      1.000     H          0.10633   
         H13       1.0000    0.84310   0.29350   0.80120   Biso      1.000     H          0.11597   
         H14       1.0000    0.86290   0.43520   0.72970   Biso      1.000     H          0.106355  
         H15       1.0000    0.94310   0.77240   0.67670   Biso      1.000     H          0.122705  
         H16       1.0000    0.90940   0.61990   0.73930   Biso      1.000     H          0.11245   
         H17       1.0000    0.56510   0.51230   0.69330   Biso      1.000     H          0.110912  
         H18       1.0000    0.59820   0.66210   0.62770   Biso      1.000     H          0.117313  
         H19       1.0000    0.08520   0.41070   0.43830   Biso      1.000     H          0.112377  
         H20       1.0000    0.55780   0.42860   0.80810   Biso      1.000     H          0.110368  
         H21       1.0000    0.41480   0.58930   0.93830   Biso      1.000     H          0.112377  
         H22       1.0000    0.65310   0.56870   0.07630   Biso      1.000     H          0.112393  
         H23       1.0000    0.25560   0.25120   0.91720   Biso      1.000     H          0.119191  
         H24       1.0000    0.34690   0.43130   0.92370   Biso      1.000     H          0.112392  
         H25       1.0000    0.58520   0.41070   0.06170   Biso      1.000     H          0.112377  
         H26       1.0000    0.49850   0.23090   0.05190   Biso      1.000     H          0.115577  
         H27       1.0000    0.05780   0.42860   0.69190   Biso      1.000     H          0.110372  
         H28       1.0000    0.03530   0.28460   0.62330   Biso      1.000     H          0.106331  
         H29       1.0000    0.34310   0.29350   0.69880   Biso      1.000     H          0.115985  
         H30       1.0000    0.36290   0.43520   0.77030   Biso      1.000     H          0.10636   
         H31       1.0000    0.44310   0.77240   0.82330   Biso      1.000     H          0.122712  
         H32       1.0000    0.40940   0.61990   0.76070   Biso      1.000     H          0.112456  
         H33       1.0000    0.06510   0.51230   0.80670   Biso      1.000     H          0.110919  
         H34       1.0000    0.50150   0.76910   0.94810   Biso      1.000     H          0.115576  
         H35       1.0000    0.09820   0.66210   0.87230   Biso      1.000     H          0.117331  
         H36       1.0000    0.15310   0.56870   0.42370   Biso      1.000     H          0.11239   
         H37       1.0000    0.91480   0.58930   0.56170   Biso      1.000     H          0.112374  
         H38       1.0000    0.00150   0.76910   0.55190   Biso      1.000     H          0.115576  
         H39       1.0000    0.44220   0.57140   0.19190   Biso      1.000     H          0.110373  
         H40       1.0000    0.46470   0.71540   0.12330   Biso      1.000     H          0.106333  
         H41       1.0000    0.15690   0.70650   0.19880   Biso      1.000     H          0.115982  
         H42       1.0000    0.13710   0.56480   0.27030   Biso      1.000     H          0.10636   
         H43       1.0000    0.05690   0.22760   0.32330   Biso      1.000     H          0.122697  
         H44       1.0000    0.43490   0.48770   0.30670   Biso      1.000     H          0.110915  
         H45       1.0000    0.40180   0.33790   0.37230   Biso      1.000     H          0.117332  
         H46       1.0000    0.74440   0.74880   0.08280   Biso      1.000     H          0.119188  
         H47       1.0000    0.24440   0.74880   0.41720   Biso      1.000     H          0.11919   
         H48       1.0000    0.09060   0.38010   0.26070   Biso      1.000     H          0.112455  
         Mn1       1.0000    0.67721   0.91508   0.48099   Biso      1.000     Mn          1.055507  
         Mn2       1.0000    0.50000   0.00000   0.00000   Biso      1.000     Mn          1.106199  
         Mn3       1.0000    0.00000   0.00000   0.50000   Biso      1.000     Mn          1.106192  
         Mn4       1.0000    0.17721   0.91508   0.01901   Biso      1.000     Mn          1.055549  
         Mn5       1.0000    0.32279   0.08492   0.51901   Biso      1.000     Mn          1.055577  
         Mn6       1.0000    0.82279   0.08492   0.98099   Biso      1.000     Mn          1.055489  
         O1        1.0000    0.07650   0.12690   0.57960   Biso      1.000     O          -0.550609           
         O2        1.0000    0.27070   0.17190   0.59380   Biso      1.000     O          -0.602125           
         O3        1.0000    0.20550   0.83590   0.92750   Biso      1.000     O          -0.585507           
         O4        1.0000    0.40100   0.88870   0.91490   Biso      1.000     O          -0.570163           
         O5        1.0000    0.29690   0.93760   0.45910   Biso      1.000     O          -0.550359           
         O6        1.0000    0.14370   0.94790   0.51410   Biso      1.000     O          -0.588553           
         O7        1.0000    0.42350   0.87310   0.07960   Biso      1.000     O          -0.550606           
         O8        1.0000    0.22930   0.82810   0.09380   Biso      1.000     O          -0.602119           
         O9        1.0000    0.29450   0.16410   0.42750   Biso      1.000     O          -0.585511           
         O10       1.0000    0.09900   0.11130   0.41490   Biso      1.000     O          -0.570167           
         O11       1.0000    0.79690   0.93760   0.04090   Biso      1.000     O          -0.550351           
         O12       1.0000    0.92350   0.87310   0.42040   Biso      1.000     O          -0.550607           
         O13       1.0000    0.35630   0.05210   0.01410   Biso      1.000     O          -0.588552           
         O14       1.0000    0.72930   0.82810   0.40620   Biso      1.000     O          -0.60211  
         O15       1.0000    0.79450   0.16410   0.07250   Biso      1.000     O          -0.585505           
         O16       1.0000    0.59900   0.11130   0.08510   Biso      1.000     O          -0.57017  
         O17       1.0000    0.70310   0.06240   0.54090   Biso      1.000     O          -0.550349           
         O18       1.0000    0.85630   0.05210   0.48590   Biso      1.000     O          -0.588538           
         O19       1.0000    0.57650   0.12690   0.92040   Biso      1.000     O          -0.550616           
         O20       1.0000    0.77070   0.17190   0.90620   Biso      1.000     O          -0.602115           
         O21       1.0000    0.70550   0.83590   0.57250   Biso      1.000     O          -0.585503           
         O22       1.0000    0.90100   0.88870   0.58510   Biso      1.000     O          -0.570167           
         O23       1.0000    0.64370   0.94790   0.98590   Biso      1.000     O          -0.588547           
         O24       1.0000    0.20310   0.06240   0.95910   Biso      1.000     O          -0.55035 