
##########################################################################
#               Crystallographic Information Format file
#               Produced by PyCifRW module
#
#  This is a CIF file.  CIF has been adopted by the International
#  Union of Crystallography as the standard for data archiving and
#  transmission.
#
#  For information on this file format, follow the CIF links at
#  http://www.iucr.org
##########################################################################

data_image0

_cell_length_a                          14.196
_cell_length_b                          15.367
_cell_length_c                          16.615
_cell_angle_alpha                       76.167
_cell_angle_beta                        87.919
_cell_angle_gamma                       64.595
_symmetry_space_group_name_H-M          'P 1'
_symmetry_int_tables_number             1
loop_
  _symmetry_equiv_pos_as_xyz
         'x, y, z' 
loop_
  _atom_site_label
  _atom_site_occupancy
  _atom_site_fract_x
  _atom_site_fract_y
  _atom_site_fract_z
  _atom_site_thermal_displace_type
  _atom_site_B_iso_or_equiv
  _atom_site_type_symbol
  _atom_site_charge
         C1        1.0000    0.46070   0.87420   0.04340   Biso      1.000     C          -0.257976           
         C2        1.0000    0.22470   0.75310   0.05050   Biso      1.000     C          0.106543  
         C3        1.0000    0.26120   0.14320   0.83650   Biso      1.000     C          -0.359101           
         C4        1.0000    0.15440   0.12390   0.95740   Biso      1.000     C          -0.352275           
         C5        1.0000    0.25050   0.03080   0.61340   Biso      1.000     C          -0.372116           
         C6        1.0000    0.14400   0.93990   0.60090   Biso      1.000     C          -0.355558           
         C7        1.0000    0.14080   0.06640   0.83560   Biso      1.000     C          0.511522  
         C8        1.0000    0.13660   0.00690   0.72130   Biso      1.000     C          0.51694   
         C9        1.0000    0.13030   0.82610   0.01120   Biso      1.000     C          -0.244881           
         C10       1.0000    0.17480   0.75700   0.89270   Biso      1.000     C          -0.254494           
         C11       1.0000    0.10780   0.82750   0.93160   Biso      1.000     C          0.331285  
         C12       1.0000    0.82280   0.29470   0.66690   Biso      1.000     C          0.120751  
         C13       1.0000    0.87390   0.21580   0.73470   Biso      1.000     C          -0.254124           
         C14       1.0000    0.84590   0.13910   0.74960   Biso      1.000     C          0.354327  
         C15       1.0000    0.26850   0.68740   0.93700   Biso      1.000     C          0.11804   
         C16       1.0000    0.76950   0.14440   0.69850   Biso      1.000     C          -0.240983           
         C17       1.0000    0.58690   0.17040   0.21780   Biso      1.000     C          -0.23626  
         C18       1.0000    0.58610   0.24060   0.25490   Biso      1.000     C          0.109242  
         C19       1.0000    0.40800   0.31340   0.25100   Biso      1.000     C          0.122919  
         C20       1.0000    0.40010   0.24530   0.21340   Biso      1.000     C          -0.248051           
         C21       1.0000    0.49150   0.17320   0.19800   Biso      1.000     C          0.341443  
         C22       1.0000    0.45930   0.78680   0.03760   Biso      1.000     C          0.112467  
         C23       1.0000    0.47010   0.73100   0.17740   Biso      1.000     C          0.120604  
         C24       1.0000    0.47070   0.81620   0.19050   Biso      1.000     C          -0.273793           
         C25       1.0000    0.46630   0.88920   0.12120   Biso      1.000     C          0.349261  
         C26       1.0000    0.62090   0.81680   0.42410   Biso      1.000     C          -0.350995           
         C27       1.0000    0.45500   0.86560   0.49610   Biso      1.000     C          -0.36243  
         C28       1.0000    0.14580   0.09240   0.37470   Biso      1.000     C          -0.356363           
         C29       1.0000    0.12090   0.18360   0.21610   Biso      1.000     C          -0.348421           
         C30       1.0000    0.72240   0.22700   0.63360   Biso      1.000     C          0.122454  
         C31       1.0000    0.70650   0.94190   0.71650   Biso      1.000     C          0.509627  
         C32       1.0000    0.54480   0.05270   0.65170   Biso      1.000     C          0.514483  
         C33       1.0000    0.87910   0.81640   0.78390   Biso      1.000     C          -0.348421           
         C34       1.0000    0.73150   0.31260   0.06300   Biso      1.000     C          0.118038  
         C35       1.0000    0.77530   0.24690   0.94950   Biso      1.000     C          0.106543  
         C36       1.0000    0.73880   0.85680   0.16350   Biso      1.000     C          -0.359101           
         C37       1.0000    0.84560   0.87610   0.04260   Biso      1.000     C          -0.352275           
         C38       1.0000    0.74950   0.96920   0.38660   Biso      1.000     C          -0.372116           
         C39       1.0000    0.85600   0.06010   0.39910   Biso      1.000     C          -0.355558           
         C40       1.0000    0.85920   0.93360   0.16440   Biso      1.000     C          0.511522  
         C41       1.0000    0.86340   0.99310   0.27870   Biso      1.000     C          0.51694   
         C42       1.0000    0.86970   0.17390   0.98880   Biso      1.000     C          -0.244881           
         C43       1.0000    0.82520   0.24300   0.10730   Biso      1.000     C          -0.254493           
         C44       1.0000    0.89220   0.17250   0.06840   Biso      1.000     C          0.331285  
         C45       1.0000    0.17720   0.70530   0.33310   Biso      1.000     C          0.120751  
         C46       1.0000    0.12610   0.78420   0.26530   Biso      1.000     C          -0.254124           
         C47       1.0000    0.15410   0.86090   0.25040   Biso      1.000     C          0.354327  
         C48       1.0000    0.23050   0.85560   0.30150   Biso      1.000     C          -0.240983           
         C49       1.0000    0.27760   0.77300   0.36640   Biso      1.000     C          0.122454  
         C50       1.0000    0.41310   0.82960   0.78220   Biso      1.000     C          -0.23626  
         C51       1.0000    0.41390   0.75940   0.74510   Biso      1.000     C          0.109242  
         C52       1.0000    0.59200   0.68660   0.74900   Biso      1.000     C          0.122919  
         C53       1.0000    0.59990   0.75470   0.78660   Biso      1.000     C          -0.248051           
         C54       1.0000    0.50850   0.82680   0.80200   Biso      1.000     C          0.341443  
         C55       1.0000    0.53930   0.12580   0.95660   Biso      1.000     C          -0.257976           
         C56       1.0000    0.54070   0.21320   0.96240   Biso      1.000     C          0.112467  
         C57       1.0000    0.52990   0.26900   0.82260   Biso      1.000     C          0.120604  
         C58       1.0000    0.52930   0.18380   0.80950   Biso      1.000     C          -0.273793           
         C59       1.0000    0.53370   0.11080   0.87880   Biso      1.000     C          0.349261  
         C60       1.0000    0.37910   0.18320   0.57590   Biso      1.000     C          -0.350996           
         C61       1.0000    0.54500   0.13440   0.50390   Biso      1.000     C          -0.36243  
         C62       1.0000    0.85420   0.90760   0.62530   Biso      1.000     C          -0.356363           
         C63       1.0000    0.45520   0.94730   0.34830   Biso      1.000     C          0.514483  
         C64       1.0000    0.29350   0.05810   0.28350   Biso      1.000     C          0.509627  
         Cd1       1.0000    0.49966   0.44044   0.32159   Biso      1.000     Cd          0.782509  
         Cd2       1.0000    0.50034   0.55956   0.67841   Biso      1.000     Cd          0.782509  
         Cd3       1.0000    0.54314   0.43134   0.91202   Biso      1.000     Cd          0.748082  
         Cd4       1.0000    0.34554   0.56286   0.49053   Biso      1.000     Cd          0.784314  
         Cd5       1.0000    0.45686   0.56866   0.08798   Biso      1.000     Cd          0.748082  
         Cd6       1.0000    0.65446   0.43714   0.50947   Biso      1.000     Cd          0.784314  
         Cl1       1.0000    0.66254   0.31540   0.42252   Biso      1.000     Cl          -0.487808           
         Cl2       1.0000    0.61718   0.46933   0.20113   Biso      1.000     Cl          -0.531833           
         Cl3       1.0000    0.34519   0.56878   0.21661   Biso      1.000     Cl          -0.514389           
         Cl4       1.0000    0.50947   0.57236   0.39623   Biso      1.000     Cl          -0.454729           
         Cl5       1.0000    0.55681   0.57851   0.95306   Biso      1.000     Cl          -0.512304           
         Cl6       1.0000    0.33746   0.68460   0.57748   Biso      1.000     Cl          -0.487808           
         Cl7       1.0000    0.49053   0.42764   0.60377   Biso      1.000     Cl          -0.454729           
         Cl8       1.0000    0.38282   0.53067   0.79887   Biso      1.000     Cl          -0.531833           
         Cl9       1.0000    0.65481   0.43122   0.78339   Biso      1.000     Cl          -0.514389           
         Cl10      1.0000    0.64606   0.57158   0.57771   Biso      1.000     Cl          -0.491579           
         Cl11      1.0000    0.44319   0.42149   0.04694   Biso      1.000     Cl          -0.512304           
         Cl12      1.0000    0.35394   0.42842   0.42229   Biso      1.000     Cl          -0.491579           
         H1        1.0000    0.74950   0.09280   0.70750   Biso      1.000     H          0.141951  
         H2        1.0000    0.34670   0.36320   0.26240   Biso      1.000     H          0.094797  
         H3        1.0000    0.64980   0.23880   0.26900   Biso      1.000     H          0.093519  
         H4        1.0000    0.64930   0.12210   0.20610   Biso      1.000     H          0.147656  
         H5        1.0000    0.66910   0.23070   0.60010   Biso      1.000     H          0.09148   
         H6        1.0000    0.92500   0.21520   0.76860   Biso      1.000     H          0.15591   
         H7        1.0000    0.54210   0.07800   0.00410   Biso      1.000     H          0.149638  
         H8        1.0000    0.15800   0.75610   0.83940   Biso      1.000     H          0.15602   
         H9        1.0000    0.08400   0.87250   0.03780   Biso      1.000     H          0.148138  
         H10       1.0000    0.09110   0.98890   0.55880   Biso      1.000     H          0.135911  
         H11       1.0000    0.20220   0.89880   0.57510   Biso      1.000     H          0.144136  
         H12       1.0000    0.11580   0.89940   0.63670   Biso      1.000     H          0.154705  
         H13       1.0000    0.33570   0.24860   0.19940   Biso      1.000     H          0.158898  
         H14       1.0000    0.84150   0.34710   0.65570   Biso      1.000     H          0.094991  
         H15       1.0000    0.45790   0.92200   0.99590   Biso      1.000     H          0.149638  
         H16       1.0000    0.49210   0.79870   0.52920   Biso      1.000     H          0.151356  
         H17       1.0000    0.47430   0.68120   0.22380   Biso      1.000     H          0.085312  
         H18       1.0000    0.47390   0.82430   0.24390   Biso      1.000     H          0.148518  
         H19       1.0000    0.54510   0.22280   0.01510   Biso      1.000     H          0.089968  
         H20       1.0000    0.63460   0.74790   0.43870   Biso      1.000     H          0.148011  
         H21       1.0000    0.65370   0.83010   0.46620   Biso      1.000     H          0.141397  
         H22       1.0000    0.38430   0.87830   0.48290   Biso      1.000     H          0.142404  
         H23       1.0000    0.45490   0.91130   0.52670   Biso      1.000     H          0.141554  
         H24       1.0000    0.28570   0.03940   0.65710   Biso      1.000     H          0.151147  
         H25       1.0000    0.18090   0.02370   0.40400   Biso      1.000     H          0.149892  
         H26       1.0000    0.07250   0.11100   0.36610   Biso      1.000     H          0.152292  
         H27       1.0000    0.15550   0.13270   0.40670   Biso      1.000     H          0.144057  
         H28       1.0000    0.10930   0.24910   0.21860   Biso      1.000     H          0.146062  
         H29       1.0000    0.05510   0.17980   0.21590   Biso      1.000     H          0.147935  
         H30       1.0000    0.15390   0.16950   0.16630   Biso      1.000     H          0.166685  
         H31       1.0000    0.45490   0.77720   0.98490   Biso      1.000     H          0.089968  
         H32       1.0000    0.30110   0.98650   0.58460   Biso      1.000     H          0.145239  
         H33       1.0000    0.64840   0.83190   0.37170   Biso      1.000     H          0.158771  
         H34       1.0000    0.11820   0.08470   0.98130   Biso      1.000     H          0.157507  
         H35       1.0000    0.68940   0.86290   0.12210   Biso      1.000     H          0.145245  
         H36       1.0000    0.77650   0.78810   0.19240   Biso      1.000     H          0.14405   
         H37       1.0000    0.78540   0.89400   0.00660   Biso      1.000     H          0.146729  
         H38       1.0000    0.65330   0.63680   0.73760   Biso      1.000     H          0.094797  
         H39       1.0000    0.35020   0.76120   0.73100   Biso      1.000     H          0.093519  
         H40       1.0000    0.35070   0.87790   0.79390   Biso      1.000     H          0.147656  
         H41       1.0000    0.33090   0.76930   0.39990   Biso      1.000     H          0.09148   
         H42       1.0000    0.88180   0.91530   0.01870   Biso      1.000     H          0.157507  
         H43       1.0000    0.78810   0.90590   0.42480   Biso      1.000     H          0.136975  
         H44       1.0000    0.70220   0.89470   0.20240   Biso      1.000     H          0.150278  
         H45       1.0000    0.69890   0.01350   0.41540   Biso      1.000     H          0.145239  
         H46       1.0000    0.88420   0.10060   0.36330   Biso      1.000     H          0.154705  
         H47       1.0000    0.25050   0.90720   0.29250   Biso      1.000     H          0.141951  
         H48       1.0000    0.07500   0.78480   0.23140   Biso      1.000     H          0.15591   
         H49       1.0000    0.15850   0.65290   0.34430   Biso      1.000     H          0.094991  
         H50       1.0000    0.84200   0.24390   0.16060   Biso      1.000     H          0.15602   
         H51       1.0000    0.21190   0.09410   0.57520   Biso      1.000     H          0.136975  
         H52       1.0000    0.91600   0.12750   0.96220   Biso      1.000     H          0.148138  
         H53       1.0000    0.90890   0.01110   0.44120   Biso      1.000     H          0.135911  
         H54       1.0000    0.79780   0.10120   0.42490   Biso      1.000     H          0.144136  
         H55       1.0000    0.71430   0.96060   0.34290   Biso      1.000     H          0.151147  
         H56       1.0000    0.75900   0.24920   0.89510   Biso      1.000     H          0.08774   
         H57       1.0000    0.89150   0.80690   0.04940   Biso      1.000     H          0.140742  
         H58       1.0000    0.52570   0.31880   0.77620   Biso      1.000     H          0.085312  
         H59       1.0000    0.21460   0.10600   0.99340   Biso      1.000     H          0.146729  
         H60       1.0000    0.10850   0.19310   0.95060   Biso      1.000     H          0.140742  
         H61       1.0000    0.22350   0.21190   0.80760   Biso      1.000     H          0.14405   
         H62       1.0000    0.31060   0.13710   0.87790   Biso      1.000     H          0.145245  
         H63       1.0000    0.29780   0.10530   0.79760   Biso      1.000     H          0.150278  
         H64       1.0000    0.24100   0.75080   0.10490   Biso      1.000     H          0.08774   
         H65       1.0000    0.68430   0.36020   0.08820   Biso      1.000     H          0.090009  
         H66       1.0000    0.84610   0.83050   0.83370   Biso      1.000     H          0.166685  
         H67       1.0000    0.94490   0.82020   0.78410   Biso      1.000     H          0.147935  
         H68       1.0000    0.89070   0.75090   0.78140   Biso      1.000     H          0.146062  
         H69       1.0000    0.84450   0.86730   0.59330   Biso      1.000     H          0.144057  
         H70       1.0000    0.31570   0.63980   0.91180   Biso      1.000     H          0.090009  
         H71       1.0000    0.92750   0.88900   0.63390   Biso      1.000     H          0.152292  
         H72       1.0000    0.66430   0.75140   0.80060   Biso      1.000     H          0.158898  
         H73       1.0000    0.35160   0.16810   0.62830   Biso      1.000     H          0.158771  
         H74       1.0000    0.36540   0.25210   0.56130   Biso      1.000     H          0.148011  
         H75       1.0000    0.34630   0.16990   0.53380   Biso      1.000     H          0.141397  
         H76       1.0000    0.52610   0.17570   0.75610   Biso      1.000     H          0.148518  
         H77       1.0000    0.54510   0.08870   0.47330   Biso      1.000     H          0.141554  
         H78       1.0000    0.50790   0.20130   0.47080   Biso      1.000     H          0.151356  
         H79       1.0000    0.81910   0.97630   0.59600   Biso      1.000     H          0.149892  
         H80       1.0000    0.61570   0.12170   0.51710   Biso      1.000     H          0.142404  
         N1        1.0000    0.53600   0.28460   0.89690   Biso      1.000     N          -0.227068           
         N2        1.0000    0.70610   0.31430   0.98560   Biso      1.000     N          -0.225645           
         N3        1.0000    0.81260   0.89440   0.12330   Biso      1.000     N          -0.007307           
         N4        1.0000    0.82160   0.01110   0.35080   Biso      1.000     N          -0.005038           
         N5        1.0000    0.93400   0.95490   0.12470   Biso      1.000     N          -0.767781           
         N6        1.0000    0.82470   0.94950   0.23820   Biso      1.000     N          -0.593026           
         N7        1.0000    0.93720   0.02580   0.25530   Biso      1.000     N          -0.782451           
         N8        1.0000    0.25110   0.70000   0.38310   Biso      1.000     N          -0.228049           
         N9        1.0000    0.50100   0.68850   0.72820   Biso      1.000     N          -0.228666           
         N10       1.0000    0.80890   0.89200   0.70860   Biso      1.000     N          -0.029815           
         N11       1.0000    0.19110   0.10800   0.29140   Biso      1.000     N          -0.029815           
         N12       1.0000    0.67400   0.92180   0.79370   Biso      1.000     N          -0.774538           
         N13       1.0000    0.51350   0.95500   0.28380   Biso      1.000     N          -0.765416           
         N14       1.0000    0.49240   0.12130   0.58230   Biso      1.000     N          -0.011159           
         N15       1.0000    0.32600   0.07820   0.20630   Biso      1.000     N          -0.774538           
         N16       1.0000    0.50760   0.87870   0.41770   Biso      1.000     N          -0.011159           
         N17       1.0000    0.46400   0.71540   0.10310   Biso      1.000     N          -0.227068           
         N18       1.0000    0.49900   0.31150   0.27180   Biso      1.000     N          -0.228666           
         N19       1.0000    0.74890   0.30000   0.61690   Biso      1.000     N          -0.228049           
         N20       1.0000    0.35290   0.99630   0.35230   Biso      1.000     N          -0.599814           
         N21       1.0000    0.17530   0.05050   0.76180   Biso      1.000     N          -0.593026           
         N22       1.0000    0.06600   0.04510   0.87530   Biso      1.000     N          -0.767781           
         N23       1.0000    0.17840   0.98890   0.64920   Biso      1.000     N          -0.005038           
         N24       1.0000    0.18740   0.10560   0.87670   Biso      1.000     N          -0.007307           
         N25       1.0000    0.29390   0.68570   0.01440   Biso      1.000     N          -0.225645           
         N26       1.0000    0.48650   0.04500   0.71620   Biso      1.000     N          -0.765416           
         N27       1.0000    0.64710   0.00370   0.64770   Biso      1.000     N          -0.599814           
         N28       1.0000    0.06280   0.97420   0.74470   Biso      1.000     N          -0.782451           
         O1        1.0000    0.50790   0.89590   0.84370   Biso      1.000     O          -0.387006           
         O2        1.0000    0.52500   0.02500   0.87680   Biso      1.000     O          -0.383138           
         O3        1.0000    0.01120   0.90000   0.89030   Biso      1.000     O          -0.389609           
         O4        1.0000    0.88990   0.05610   0.81620   Biso      1.000     O          -0.378125           
         O5        1.0000    0.49210   0.10410   0.15630   Biso      1.000     O          -0.387006           
         O6        1.0000    0.98880   0.10000   0.10970   Biso      1.000     O          -0.389609           
         O7        1.0000    0.11010   0.94390   0.18380   Biso      1.000     O          -0.378125           
         O8        1.0000    0.47500   0.97500   0.12320   Biso      1.000     O          -0.383138           
         P1        1.0000    0.98570   0.00451   0.17103   Biso      1.000     P          1.242583  
         P2        1.0000    0.01430   0.99549   0.82897   Biso      1.000     P          1.242583  
         P3        1.0000    0.44700   0.02648   0.19921   Biso      1.000     P          1.247095  
         P4        1.0000    0.55300   0.97352   0.80079   Biso      1.000     P          1.247095 