
##########################################################################
#               Crystallographic Information Format file
#               Produced by PyCifRW module
#
#  This is a CIF file.  CIF has been adopted by the International
#  Union of Crystallography as the standard for data archiving and
#  transmission.
#
#  For information on this file format, follow the CIF links at
#  http://www.iucr.org
##########################################################################

data_image0

_cell_length_a                          18.2519
_cell_length_b                          18.2519
_cell_length_c                          18.252
_cell_angle_alpha                       60.0037
_cell_angle_beta                        60.0037
_cell_angle_gamma                       60.0005
_symmetry_space_group_name_H-M          'P 1'
_symmetry_int_tables_number             1
loop_
  _symmetry_equiv_pos_as_xyz
         'x, y, z' 
loop_
  _atom_site_label
  _atom_site_occupancy
  _atom_site_fract_x
  _atom_site_fract_y
  _atom_site_fract_z
  _atom_site_thermal_displace_type
  _atom_site_B_iso_or_equiv
  _atom_site_type_symbol
  _atom_site_charge
         C1        1.0000    0.47240   0.96480   0.58800   Biso      1.000     C          -0.109061           
         C2        1.0000    0.88980   0.61220   0.38620   Biso      1.000     C          0.565527  
         C3        1.0000    0.96350   0.09130   0.97150   Biso      1.000     C          -0.111908           
         C4        1.0000    0.47360   0.08940   0.97370   Biso      1.000     C          -0.105583           
         C5        1.0000    0.47080   0.96640   0.97190   Biso      1.000     C          -0.100032           
         C6        1.0000    0.44390   0.05490   0.94620   Biso      1.000     C          -0.012443           
         C7        1.0000    0.38660   0.11340   0.89090   Biso      1.000     C          0.596743  
         C8        1.0000    0.47360   0.09180   0.46450   Biso      1.000     C          -0.104766           
         C9        1.0000    0.94790   0.55250   0.44740   Biso      1.000     C          -0.003589           
         C10       1.0000    0.44750   0.05210   0.55260   Biso      1.000     C          -0.003533           
         C11       1.0000    0.09130   0.96350   0.97150   Biso      1.000     C          -0.111908           
         C12       1.0000    0.08940   0.47360   0.97370   Biso      1.000     C          -0.105583           
         C13       1.0000    0.96640   0.47080   0.97190   Biso      1.000     C          -0.100032           
         C14       1.0000    0.05490   0.44390   0.94620   Biso      1.000     C          -0.012443           
         C15       1.0000    0.11340   0.38660   0.89090   Biso      1.000     C          0.596744  
         C16       1.0000    0.09180   0.47360   0.46450   Biso      1.000     C          -0.104769           
         C17       1.0000    0.05210   0.44750   0.55260   Biso      1.000     C          -0.003557           
         C18       1.0000    0.38780   0.11020   0.61380   Biso      1.000     C          0.565522  
         C19       1.0000    0.11020   0.38780   0.61380   Biso      1.000     C          0.565525  
         C20       1.0000    0.03520   0.52760   0.41200   Biso      1.000     C          -0.10903  
         C21       1.0000    0.88660   0.61340   0.10910   Biso      1.000     C          0.596743  
         C22       1.0000    0.05350   0.05350   0.94630   Biso      1.000     C          -0.019918           
         C23       1.0000    0.11520   0.11520   0.88290   Biso      1.000     C          0.568822  
         C24       1.0000    0.47420   0.47420   0.46330   Biso      1.000     C          -0.111765           
         C25       1.0000    0.47300   0.47300   0.59030   Biso      1.000     C          -0.098537           
         C26       1.0000    0.44580   0.44580   0.55480   Biso      1.000     C          -0.018353           
         C27       1.0000    0.38860   0.38860   0.60700   Biso      1.000     C          0.612774  
         C28       1.0000    0.94650   0.94650   0.05370   Biso      1.000     C          -0.019954           
         C29       1.0000    0.90820   0.52640   0.53550   Biso      1.000     C          -0.104734           
         C30       1.0000    0.88480   0.88480   0.11710   Biso      1.000     C          0.568825  
         C31       1.0000    0.52700   0.52700   0.40970   Biso      1.000     C          -0.098534           
         C32       1.0000    0.55420   0.55420   0.44520   Biso      1.000     C          -0.018354           
         C33       1.0000    0.61140   0.61140   0.39300   Biso      1.000     C          0.612774  
         C34       1.0000    0.90870   0.03650   0.02850   Biso      1.000     C          -0.111886           
         C35       1.0000    0.91060   0.52640   0.02630   Biso      1.000     C          -0.105583           
         C36       1.0000    0.03360   0.52920   0.02810   Biso      1.000     C          -0.100032           
         C37       1.0000    0.94510   0.55610   0.05380   Biso      1.000     C          -0.012443           
         C38       1.0000    0.52580   0.52580   0.53670   Biso      1.000     C          -0.111762           
         C39       1.0000    0.03650   0.90870   0.02850   Biso      1.000     C          -0.111886           
         C40       1.0000    0.96480   0.47240   0.58800   Biso      1.000     C          -0.109038           
         C41       1.0000    0.52920   0.03360   0.02810   Biso      1.000     C          -0.100032           
         C42       1.0000    0.55610   0.94510   0.05380   Biso      1.000     C          -0.012443           
         C43       1.0000    0.61340   0.88660   0.10910   Biso      1.000     C          0.596744  
         C44       1.0000    0.52640   0.90820   0.53550   Biso      1.000     C          -0.104766           
         C45       1.0000    0.52760   0.03520   0.41200   Biso      1.000     C          -0.10906  
         C46       1.0000    0.55250   0.94790   0.44740   Biso      1.000     C          -0.003533           
         C47       1.0000    0.61220   0.88980   0.38620   Biso      1.000     C          0.565522  
         C48       1.0000    0.52640   0.91060   0.02630   Biso      1.000     C          -0.105582           
         H1        1.0000    0.45370   0.93910   0.65020   Biso      1.000     H          0.114081  
         H2        1.0000    0.15140   0.45680   0.95620   Biso      1.000     H          0.115532  
         H3        1.0000    0.94020   0.45280   0.95390   Biso      1.000     H          0.120394  
         H4        1.0000    0.15390   0.45690   0.43850   Biso      1.000     H          0.123767  
         H5        1.0000    0.54720   0.05980   0.04610   Biso      1.000     H          0.120394  
         H6        1.0000    0.06260   0.84660   0.04860   Biso      1.000     H          0.119262  
         H7        1.0000    0.54320   0.84860   0.04380   Biso      1.000     H          0.115532  
         H8        1.0000    0.45690   0.15390   0.43850   Biso      1.000     H          0.123767  
         H9        1.0000    0.54310   0.84610   0.56150   Biso      1.000     H          0.123767  
         H10       1.0000    0.54630   0.06090   0.34980   Biso      1.000     H          0.114081  
         H11       1.0000    0.93910   0.45370   0.65020   Biso      1.000     H          0.11408   
         H12       1.0000    0.45280   0.94020   0.95390   Biso      1.000     H          0.120394  
         H13       1.0000    0.15340   0.93740   0.95140   Biso      1.000     H          0.119264  
         H14       1.0000    0.93740   0.15340   0.95140   Biso      1.000     H          0.119264  
         H15       1.0000    0.45680   0.15140   0.95620   Biso      1.000     H          0.115532  
         H16       1.0000    0.45670   0.45670   0.43620   Biso      1.000     H          0.111244  
         H17       1.0000    0.45560   0.45560   0.65230   Biso      1.000     H          0.116184  
         H18       1.0000    0.54440   0.54440   0.34770   Biso      1.000     H          0.116184  
         H19       1.0000    0.54330   0.54330   0.56380   Biso      1.000     H          0.111244  
         H20       1.0000    0.84860   0.54320   0.04380   Biso      1.000     H          0.115532  
         H21       1.0000    0.05980   0.54720   0.04610   Biso      1.000     H          0.120394  
         H22       1.0000    0.84610   0.54310   0.56150   Biso      1.000     H          0.123764  
         H23       1.0000    0.06090   0.54630   0.34980   Biso      1.000     H          0.114079  
         H24       1.0000    0.84660   0.06260   0.04860   Biso      1.000     H          0.119262  
         O1        1.0000    0.36840   0.19560   0.56790   Biso      1.000     O          -0.52684  
         O2        1.0000    0.80440   0.63160   0.43210   Biso      1.000     O          -0.526841           
         O3        1.0000    0.36630   0.06630   0.69800   Biso      1.000     O          -0.506743           
         O4        1.0000    0.36980   0.19660   0.86440   Biso      1.000     O          -0.516104           
         O5        1.0000    0.36690   0.06930   0.86840   Biso      1.000     O          -0.546835           
         O6        1.0000    0.06920   0.19760   0.86560   Biso      1.000     O          -0.499268           
         O7        1.0000    0.24980   0.24980   0.74970   Biso      1.000     O          -1.012597           
         O8        1.0000    0.93070   0.63310   0.13160   Biso      1.000     O          -0.546835           
         O9        1.0000    0.63260   0.63260   0.43140   Biso      1.000     O          -0.5123   
         O10       1.0000    0.75020   0.75020   0.25030   Biso      1.000     O          -1.012597           
         O11       1.0000    0.80240   0.93080   0.13440   Biso      1.000     O          -0.499268           
         O12       1.0000    0.80340   0.63020   0.13560   Biso      1.000     O          -0.516104           
         O13       1.0000    0.19760   0.06920   0.86560   Biso      1.000     O          -0.499268           
         O14       1.0000    0.93370   0.63370   0.30200   Biso      1.000     O          -0.506744           
         O15       1.0000    0.63030   0.63030   0.31000   Biso      1.000     O          -0.554444           
         O16       1.0000    0.06930   0.36690   0.86840   Biso      1.000     O          -0.546835           
         O17       1.0000    0.36970   0.36970   0.69000   Biso      1.000     O          -0.554444           
         O18       1.0000    0.06630   0.36630   0.69800   Biso      1.000     O          -0.506744           
         O19       1.0000    0.19560   0.36840   0.56790   Biso      1.000     O          -0.52684  
         O20       1.0000    0.93080   0.80240   0.13440   Biso      1.000     O          -0.499268           
         O21       1.0000    0.63310   0.93070   0.13160   Biso      1.000     O          -0.546835           
         O22       1.0000    0.63020   0.80340   0.13560   Biso      1.000     O          -0.516104           
         O23       1.0000    0.63370   0.93370   0.30200   Biso      1.000     O          -0.506743           
         O24       1.0000    0.63160   0.80440   0.43210   Biso      1.000     O          -0.52684  
         O25       1.0000    0.36740   0.36740   0.56860   Biso      1.000     O          -0.5123   
         O26       1.0000    0.19660   0.36980   0.86440   Biso      1.000     O          -0.516105           
         Zn1       1.0000    0.29361   0.11873   0.79376   Biso      1.000     Zn          0.917563  
         Zn2       1.0000    0.11873   0.29361   0.79376   Biso      1.000     Zn          0.917564  
         Zn3       1.0000    0.70639   0.88127   0.20624   Biso      1.000     Zn          0.917563  
         Zn4       1.0000    0.29376   0.29376   0.79386   Biso      1.000     Zn          0.933728  
         Zn5       1.0000    0.70624   0.70624   0.20614   Biso      1.000     Zn          0.933728  
         Zn6       1.0000    0.29394   0.29394   0.61867   Biso      1.000     Zn          0.92565   
         Zn7       1.0000    0.70606   0.70606   0.38133   Biso      1.000     Zn          0.92565   
         Zn8       1.0000    0.88127   0.70639   0.20624   Biso      1.000     Zn          0.917563 