
##########################################################################
#               Crystallographic Information Format file
#               Produced by PyCifRW module
#
#  This is a CIF file.  CIF has been adopted by the International
#  Union of Crystallography as the standard for data archiving and
#  transmission.
#
#  For information on this file format, follow the CIF links at
#  http://www.iucr.org
##########################################################################

data_image0

_cell_length_a                          9.832
_cell_length_b                          21.3218
_cell_length_c                          13.7949
_cell_angle_alpha                       90
_cell_angle_beta                        105.602
_cell_angle_gamma                       90
_symmetry_space_group_name_H-M          'P 1'
_symmetry_int_tables_number             1
loop_
  _symmetry_equiv_pos_as_xyz
         'x, y, z' 
loop_
  _atom_site_label
  _atom_site_occupancy
  _atom_site_fract_x
  _atom_site_fract_y
  _atom_site_fract_z
  _atom_site_thermal_displace_type
  _atom_site_B_iso_or_equiv
  _atom_site_type_symbol
  _atom_site_charge
         C1        1.0000    0.33090   0.50200   0.20300   Biso      1.000     C          0.588162  
         C2        1.0000    0.94610   0.75290   0.26950   Biso      1.000     C          0.085713  
         C3        1.0000    0.84380   0.70690   0.22800   Biso      1.000     C          -0.143314           
         C4        1.0000    0.86910   0.66050   0.16640   Biso      1.000     C          -0.120551           
         C5        1.0000    0.99940   0.65780   0.14260   Biso      1.000     C          -0.024659           
         C6        1.0000    0.09910   0.70140   0.18150   Biso      1.000     C          -0.149583           
         C7        1.0000    0.07680   0.75020   0.24610   Biso      1.000     C          0.086056  
         C8        1.0000    0.17960   0.79510   0.28990   Biso      1.000     C          -0.136456           
         C9        1.0000    0.15900   0.83870   0.35450   Biso      1.000     C          -0.09856000000000001          
         C10       1.0000    0.02710   0.84240   0.37740   Biso      1.000     C          -0.032056           
         C11       1.0000    0.92490   0.80060   0.33440   Biso      1.000     C          -0.160165           
         C12       1.0000    0.45610   0.48380   0.52520   Biso      1.000     C          0.083017  
         C13       1.0000    0.49850   0.52100   0.36850   Biso      1.000     C          -0.161855           
         C14       1.0000    0.37540   0.49560   0.31550   Biso      1.000     C          -0.005227000000000001         
         C15       1.0000    0.28840   0.46300   0.36500   Biso      1.000     C          -0.113515           
         C16       1.0000    0.32810   0.45680   0.46660   Biso      1.000     C          -0.15177000000000002          
         C17       1.0000    0.53100   0.89580   0.58010   Biso      1.000     C          0.666854  
         C18       1.0000    0.49840   0.60600   0.94410   Biso      1.000     C          0.677646  
         C19       1.0000    0.42490   0.69940   0.83440   Biso      1.000     C          -0.160184           
         C20       1.0000    0.44610   0.74710   0.76950   Biso      1.000     C          0.085716  
         C21       1.0000    0.34380   0.79310   0.72800   Biso      1.000     C          -0.143308           
         C22       1.0000    0.54390   0.51620   0.47480   Biso      1.000     C          0.08301499999999999           
         C23       1.0000    0.99840   0.89400   0.44410   Biso      1.000     C          0.677667  
         C24       1.0000    0.03100   0.60420   0.08010   Biso      1.000     C          0.6668569999999999  
         C25       1.0000    0.82810   0.04320   0.96660   Biso      1.000     C          -0.151789           
         C26       1.0000    0.50150   0.47900   0.63150   Biso      1.000     C          -0.161856           
         C27       1.0000    0.62460   0.50440   0.68450   Biso      1.000     C          -0.005227000000000001         
         C28       1.0000    0.71160   0.53700   0.63500   Biso      1.000     C          -0.113515           
         C29       1.0000    0.67190   0.54320   0.53340   Biso      1.000     C          -0.15177000000000002          
         C30       1.0000    0.46900   0.10420   0.41990   Biso      1.000     C          0.6668569999999999  
         C31       1.0000    0.50160   0.39400   0.05590   Biso      1.000     C          0.677666  
         C32       1.0000    0.57510   0.30060   0.16560   Biso      1.000     C          -0.16017699999999999          
         C33       1.0000    0.55390   0.25290   0.23050   Biso      1.000     C          0.085713  
         C34       1.0000    0.65620   0.20690   0.27200   Biso      1.000     C          -0.143314           
         C35       1.0000    0.63090   0.16050   0.33360   Biso      1.000     C          -0.120551           
         C36       1.0000    0.50060   0.15780   0.35740   Biso      1.000     C          -0.024659           
         C37       1.0000    0.40090   0.20140   0.31850   Biso      1.000     C          -0.149583           
         C38       1.0000    0.42320   0.25020   0.25390   Biso      1.000     C          0.086056  
         C39       1.0000    0.32040   0.29510   0.21010   Biso      1.000     C          -0.136456           
         C40       1.0000    0.34100   0.33870   0.14550   Biso      1.000     C          -0.098561           
         C41       1.0000    0.47290   0.34240   0.12260   Biso      1.000     C          -0.032044           
         C42       1.0000    0.83090   0.99800   0.70300   Biso      1.000     C          0.5881609999999999  
         C43       1.0000    0.04390   0.98380   0.97480   Biso      1.000     C          0.083017  
         C44       1.0000    0.99850   0.97900   0.86850   Biso      1.000     C          -0.161856           
         C45       1.0000    0.87540   0.00440   0.81550   Biso      1.000     C          -0.005229           
         C46       1.0000    0.78840   0.03700   0.86500   Biso      1.000     C          -0.113496           
         C47       1.0000    0.36910   0.83950   0.66640   Biso      1.000     C          -0.12056199999999999          
         C48       1.0000    0.49940   0.84220   0.64260   Biso      1.000     C          -0.02468  
         C49       1.0000    0.66910   0.49800   0.79700   Biso      1.000     C          0.5881609999999999  
         C50       1.0000    0.59910   0.79860   0.68150   Biso      1.000     C          -0.149575           
         C51       1.0000    0.00150   0.02100   0.13150   Biso      1.000     C          -0.161854           
         C52       1.0000    0.12460   0.99560   0.18450   Biso      1.000     C          -0.005227000000000001         
         C53       1.0000    0.21160   0.96300   0.13500   Biso      1.000     C          -0.113515           
         C54       1.0000    0.17190   0.95680   0.03340   Biso      1.000     C          -0.15177000000000002          
         C55       1.0000    0.96900   0.39580   0.91990   Biso      1.000     C          0.666854  
         C56       1.0000    0.07510   0.19940   0.66560   Biso      1.000     C          -0.160183           
         C57       1.0000    0.05390   0.24710   0.73050   Biso      1.000     C          0.085716  
         C58       1.0000    0.15620   0.29310   0.77200   Biso      1.000     C          -0.143308           
         C59       1.0000    0.13090   0.33950   0.83360   Biso      1.000     C          -0.12056199999999999          
         C60       1.0000    0.00060   0.34220   0.85740   Biso      1.000     C          -0.02468  
         C61       1.0000    0.90090   0.29860   0.81850   Biso      1.000     C          -0.149575           
         C62       1.0000    0.92320   0.24980   0.75390   Biso      1.000     C          0.08605299999999999           
         C63       1.0000    0.82040   0.20490   0.71010   Biso      1.000     C          -0.136461           
         C64       1.0000    0.84100   0.16130   0.64550   Biso      1.000     C          -0.09855499999999999          
         C65       1.0000    0.97290   0.15760   0.62260   Biso      1.000     C          -0.03202  
         C66       1.0000    0.95610   0.01620   0.02520   Biso      1.000     C          0.08301599999999999           
         C67       1.0000    0.16910   0.00200   0.29700   Biso      1.000     C          0.588162  
         C68       1.0000    0.00160   0.10600   0.55590   Biso      1.000     C          0.677646  
         C69       1.0000    0.67960   0.70490   0.78990   Biso      1.000     C          -0.136461           
         C70       1.0000    0.57680   0.74980   0.74610   Biso      1.000     C          0.08605299999999999           
         C71       1.0000    0.65900   0.66130   0.85450   Biso      1.000     C          -0.09855499999999999          
         C72       1.0000    0.52710   0.65760   0.87740   Biso      1.000     C          -0.03202  
         H1        1.0000    0.20160   0.36990   0.86040   Biso      1.000     H          0.105261  
         H2        1.0000    0.83580   0.80360   0.34860   Biso      1.000     H          0.12247999999999999           
         H3        1.0000    0.26950   0.43420   0.49900   Biso      1.000     H          0.118093  
         H4        1.0000    0.68690   0.80050   0.66510   Biso      1.000     H          0.130375  
         H5        1.0000    0.16420   0.19640   0.65140   Biso      1.000     H          0.122485  
         H6        1.0000    0.76950   0.06580   0.99900   Biso      1.000     H          0.118095  
         H7        1.0000    0.31310   0.19950   0.33490   Biso      1.000     H          0.130378  
         H8        1.0000    0.24490   0.29180   0.75690   Biso      1.000     H          0.11911   
         H9        1.0000    0.73290   0.20540   0.72700   Biso      1.000     H          0.11385799999999999           
         H10       1.0000    0.05580   0.95740   0.83390   Biso      1.000     H          0.124589  
         H11       1.0000    0.25510   0.79180   0.74310   Biso      1.000     H          0.11911   
         H12       1.0000    0.23290   0.29460   0.22700   Biso      1.000     H          0.11385799999999999           
         H13       1.0000    0.81310   0.30050   0.83490   Biso      1.000     H          0.130375  
         H14       1.0000    0.26740   0.36710   0.11520   Biso      1.000     H          0.11841099999999999           
         H15       1.0000    0.70180   0.05470   0.82700   Biso      1.000     H          0.115026  
         H16       1.0000    0.23050   0.93420   0.00100   Biso      1.000     H          0.118093  
         H17       1.0000    0.75510   0.70820   0.24310   Biso      1.000     H          0.11910899999999999           
         H18       1.0000    0.20180   0.44530   0.32700   Biso      1.000     H          0.115027  
         H19       1.0000    0.44420   0.45740   0.66610   Biso      1.000     H          0.124589  
         H20       1.0000    0.79820   0.55470   0.67300   Biso      1.000     H          0.11502799999999999           
         H21       1.0000    0.73050   0.56580   0.50100   Biso      1.000     H          0.118093  
         H22       1.0000    0.66420   0.30360   0.15140   Biso      1.000     H          0.12248099999999999           
         H23       1.0000    0.29840   0.86990   0.63960   Biso      1.000     H          0.105261  
         H24       1.0000    0.74490   0.20820   0.25690   Biso      1.000     H          0.11911   
         H25       1.0000    0.76740   0.13290   0.61520   Biso      1.000     H          0.11841900000000001           
         H26       1.0000    0.73260   0.63290   0.88480   Biso      1.000     H          0.11841900000000001           
         H27       1.0000    0.23260   0.86710   0.38480   Biso      1.000     H          0.11841099999999999           
         H28       1.0000    0.26710   0.79460   0.27300   Biso      1.000     H          0.11385799999999999           
         H29       1.0000    0.94420   0.04260   0.16610   Biso      1.000     H          0.12459   
         H30       1.0000    0.70160   0.13010   0.36040   Biso      1.000     H          0.105269  
         H31       1.0000    0.18690   0.69950   0.16510   Biso      1.000     H          0.130378  
         H32       1.0000    0.76710   0.70540   0.77300   Biso      1.000     H          0.11385799999999999           
         H33       1.0000    0.29820   0.94530   0.17300   Biso      1.000     H          0.115027  
         H34       1.0000    0.79840   0.63010   0.13960   Biso      1.000     H          0.105269  
         H35       1.0000    0.55580   0.54260   0.33390   Biso      1.000     H          0.12459   
         H36       1.0000    0.33580   0.69640   0.84860   Biso      1.000     H          0.122485  
         Nd1       1.0000    0.73876   0.98438   0.48514   Biso      1.000     Nd          2.1006669999999996  
         Nd2       1.0000    0.26124   0.01561   0.51486   Biso      1.000     Nd          2.100669  
         Nd3       1.0000    0.76124   0.48438   0.01486   Biso      1.000     Nd          2.1006669999999996  
         Nd4       1.0000    0.23876   0.51561   0.98514   Biso      1.000     Nd          2.100669  
         O1        1.0000    0.87640   0.89750   0.45480   Biso      1.000     O          -0.68011  
         O2        1.0000    0.12360   0.10250   0.54520   Biso      1.000     O          -0.680129           
         O3        1.0000    0.90180   0.06996   0.51470   Biso      1.000     O          -0.709807           
         O4        1.0000    0.09820   0.93004   0.48530   Biso      1.000     O          -0.709825           
         O5        1.0000    0.85150   0.39497   0.93910   Biso      1.000     O          -0.630857           
         O6        1.0000    0.14850   0.60503   0.06090   Biso      1.000     O          -0.630879           
         O7        1.0000    0.06070   0.43800   0.94810   Biso      1.000     O          -0.752424           
         O8        1.0000    0.08900   0.02920   0.34150   Biso      1.000     O          -0.635383           
         O9        1.0000    0.28720   0.98020   0.34650   Biso      1.000     O          -0.649001           
         O10       1.0000    0.93930   0.56200   0.05190   Biso      1.000     O          -0.752455           
         O11       1.0000    0.91100   0.97080   0.65850   Biso      1.000     O          -0.635402           
         O12       1.0000    0.58900   0.47080   0.84150   Biso      1.000     O          -0.635402           
         O13       1.0000    0.59820   0.56996   0.98530   Biso      1.000     O          -0.709807           
         O14       1.0000    0.64850   0.89497   0.56090   Biso      1.000     O          -0.630857           
         O15       1.0000    0.43930   0.93800   0.55190   Biso      1.000     O          -0.752424           
         O16       1.0000    0.41100   0.52920   0.15850   Biso      1.000     O          -0.635383           
         O17       1.0000    0.21280   0.48020   0.15350   Biso      1.000     O          -0.649001           
         O18       1.0000    0.37640   0.60250   0.95480   Biso      1.000     O          -0.680129           
         O19       1.0000    0.62360   0.39750   0.04520   Biso      1.000     O          -0.68011  
         O20       1.0000    0.40180   0.43004   0.01470   Biso      1.000     O          -0.709825           
         O21       1.0000    0.35150   0.10503   0.43910   Biso      1.000     O          -0.630879           
         O22       1.0000    0.56070   0.06200   0.44810   Biso      1.000     O          -0.752455           
         O23       1.0000    0.78720   0.51980   0.84650   Biso      1.000     O          -0.64899  
         O24       1.0000    0.71280   0.01980   0.65350   Biso      1.000     O          -0.64899 