
##########################################################################
#               Crystallographic Information Format file
#               Produced by PyCifRW module
#
#  This is a CIF file.  CIF has been adopted by the International
#  Union of Crystallography as the standard for data archiving and
#  transmission.
#
#  For information on this file format, follow the CIF links at
#  http://www.iucr.org
##########################################################################

data_image0

_cell_length_a                          10.274
_cell_length_b                          10.274
_cell_length_c                          11.5943
_cell_angle_alpha                       80.5546
_cell_angle_beta                        80.5546
_cell_angle_gamma                       85.0381
_symmetry_space_group_name_H-M          'P 1'
_symmetry_int_tables_number             1
loop_
  _symmetry_equiv_pos_as_xyz
         'x, y, z' 
loop_
  _atom_site_label
  _atom_site_occupancy
  _atom_site_fract_x
  _atom_site_fract_y
  _atom_site_fract_z
  _atom_site_thermal_displace_type
  _atom_site_B_iso_or_equiv
  _atom_site_type_symbol
  _atom_site_charge
         C1        1.0000    0.54010   0.61270   0.42100   Biso      1.000     C          -0.042306           
         C2        1.0000    0.53250   0.43330   0.90280   Biso      1.000     C          -0.044463           
         C3        1.0000    0.61270   0.54010   0.92100   Biso      1.000     C          -0.042306           
         C4        1.0000    0.56670   0.46750   0.59720   Biso      1.000     C          -0.044463           
         C5        1.0000    0.45990   0.38730   0.57900   Biso      1.000     C          -0.042306           
         C6        1.0000    0.46750   0.56670   0.09720   Biso      1.000     C          -0.044463           
         C7        1.0000    0.38730   0.45990   0.07900   Biso      1.000     C          -0.042306           
         C8        1.0000    0.43330   0.53250   0.40280   Biso      1.000     C          -0.044463           
         Cd1       1.0000    0.85937   0.47968   0.42132   Biso      1.000     Cd          0.835346  
         Cd2       1.0000    0.47968   0.85937   0.92132   Biso      1.000     Cd          0.835345  
         Cd3       1.0000    0.14063   0.52032   0.57868   Biso      1.000     Cd          0.835346  
         Cd4       1.0000    0.52032   0.14063   0.07868   Biso      1.000     Cd          0.835345  
         Cd5       1.0000    0.22589   0.77411   0.75000   Biso      1.000     Cd          0.833643  
         Cd6       1.0000    0.77411   0.22589   0.25000   Biso      1.000     Cd          0.833643  
         Cl1       1.0000    0.23214   0.81430   0.96654   Biso      1.000     Cl          -0.447039           
         Cl2       1.0000    0.19684   0.52294   0.79028   Biso      1.000     Cl          -0.45034  
         Cl3       1.0000    0.48959   0.11055   0.86428   Biso      1.000     Cl          -0.461555           
         Cl4       1.0000    0.47706   0.80316   0.70972   Biso      1.000     Cl          -0.45034  
         Cl5       1.0000    0.52294   0.19684   0.29028   Biso      1.000     Cl          -0.45034  
         Cl6       1.0000    0.88945   0.51041   0.63572   Biso      1.000     Cl          -0.461556           
         Cl7       1.0000    0.76786   0.18570   0.03346   Biso      1.000     Cl          -0.447039           
         Cl8       1.0000    0.80316   0.47706   0.20972   Biso      1.000     Cl          -0.45034  
         Cl9       1.0000    0.18570   0.76786   0.53346   Biso      1.000     Cl          -0.447039           
         Cl10      1.0000    0.51041   0.88945   0.13572   Biso      1.000     Cl          -0.461555           
         Cl11      1.0000    0.11055   0.48959   0.36428   Biso      1.000     Cl          -0.461555           
         Cl12      1.0000    0.81430   0.23214   0.46654   Biso      1.000     Cl          -0.447039           
         H1        1.0000    0.47100   0.46600   0.35430   Biso      1.000     H          0.088084  
         H2        1.0000    0.36990   0.58910   0.36130   Biso      1.000     H          0.109982  
         H3        1.0000    0.50170   0.68350   0.46420   Biso      1.000     H          0.101696  
         H4        1.0000    0.34790   0.41450   0.15510   Biso      1.000     H          0.11148   
         H5        1.0000    0.31650   0.49830   0.03580   Biso      1.000     H          0.101696  
         H6        1.0000    0.53400   0.52900   0.14570   Biso      1.000     H          0.088084  
         H7        1.0000    0.41090   0.63010   0.13870   Biso      1.000     H          0.109982  
         H8        1.0000    0.41450   0.34790   0.65510   Biso      1.000     H          0.11148   
         H9        1.0000    0.58550   0.65210   0.34490   Biso      1.000     H          0.11148   
         H10       1.0000    0.49830   0.31650   0.53580   Biso      1.000     H          0.101697  
         H11       1.0000    0.63010   0.41090   0.63870   Biso      1.000     H          0.109982  
         H12       1.0000    0.65210   0.58550   0.84490   Biso      1.000     H          0.11148   
         H13       1.0000    0.68350   0.50170   0.96420   Biso      1.000     H          0.101696  
         H14       1.0000    0.46600   0.47100   0.85430   Biso      1.000     H          0.088084  
         H15       1.0000    0.58910   0.36990   0.86130   Biso      1.000     H          0.109982  
         H16       1.0000    0.52900   0.53400   0.64570   Biso      1.000     H          0.088084  
         O1        1.0000    0.36687   0.46871   0.51410   Biso      1.000     O          -0.217707           
         O2        1.0000    0.63313   0.53129   0.48590   Biso      1.000     O          -0.217707           
         O3        1.0000    0.46871   0.36687   0.01410   Biso      1.000     O          -0.217707           
         O4        1.0000    0.53129   0.63313   0.98590   Biso      1.000     O          -0.217707 