
##########################################################################
#               Crystallographic Information Format file
#               Produced by PyCifRW module
#
#  This is a CIF file.  CIF has been adopted by the International
#  Union of Crystallography as the standard for data archiving and
#  transmission.
#
#  For information on this file format, follow the CIF links at
#  http://www.iucr.org
##########################################################################

data_image0

_cell_length_a                          8.857
_cell_length_b                          10.021
_cell_length_c                          12.993
_cell_angle_alpha                       82.284
_cell_angle_beta                        84.145
_cell_angle_gamma                       89.896
_symmetry_space_group_name_H-M          'P 1'
_symmetry_int_tables_number             1
loop_
  _symmetry_equiv_pos_as_xyz
         'x, y, z' 
loop_
  _atom_site_label
  _atom_site_occupancy
  _atom_site_fract_x
  _atom_site_fract_y
  _atom_site_fract_z
  _atom_site_thermal_displace_type
  _atom_site_B_iso_or_equiv
  _atom_site_type_symbol
  _atom_site_charge
         C1        1.0000    0.55450   0.48250   0.24530   Biso      1.000     C          0.127227  
         C2        1.0000    0.29640   0.46020   0.73320   Biso      1.000     C          -0.16521  
         C3        1.0000    0.91290   0.67680   0.02270   Biso      1.000     C          -0.05372999999999999          
         C4        1.0000    0.45500   0.80670   0.03430   Biso      1.000     C          -0.129241           
         C5        1.0000    0.86670   0.43640   0.73260   Biso      1.000     C          -0.165181           
         C6        1.0000    0.84090   0.57120   0.08500   Biso      1.000     C          -0.12548499999999999          
         C7        1.0000    0.31800   0.84760   0.07450   Biso      1.000     C          -0.062439999999999996         
         C8        1.0000    0.59320   0.83070   0.85260   Biso      1.000     C          -0.156993           
         C9        1.0000    0.42000   0.55050   0.26550   Biso      1.000     C          -0.259521           
         C10       1.0000    0.40680   0.16930   0.14740   Biso      1.000     C          -0.156993           
         C11       1.0000    0.15910   0.42880   0.91500   Biso      1.000     C          -0.125493           
         C12       1.0000    0.70360   0.53980   0.26680   Biso      1.000     C          -0.165212           
         C13       1.0000    0.08710   0.32320   0.97730   Biso      1.000     C          -0.053722000000000006         
         C14       1.0000    0.91610   0.23070   0.64320   Biso      1.000     C          0.083496  
         C15       1.0000    0.17780   0.24840   0.83650   Biso      1.000     C          0.052538999999999995          
         C16       1.0000    0.13330   0.56360   0.26740   Biso      1.000     C          -0.165181           
         C17       1.0000    0.55200   0.35960   0.20580   Biso      1.000     C          -0.227358           
         C18       1.0000    0.84570   0.40890   0.54370   Biso      1.000     C          -0.135854           
         C19       1.0000    0.44800   0.64040   0.79420   Biso      1.000     C          -0.227357           
         C20       1.0000    0.82220   0.75160   0.16350   Biso      1.000     C          0.052538999999999995          
         C21       1.0000    0.28270   0.49540   0.24680   Biso      1.000     C          0.13281300000000001           
         C22       1.0000    0.54500   0.19330   0.96570   Biso      1.000     C          -0.129242           
         C23       1.0000    0.28160   0.37330   0.20710   Biso      1.000     C          -0.21681199999999998          
         C24       1.0000    0.68200   0.15240   0.92550   Biso      1.000     C          -0.062439999999999996         
         C25       1.0000    0.41480   0.30490   0.18540   Biso      1.000     C          0.14526   
         C26       1.0000    0.08390   0.76930   0.35680   Biso      1.000     C          0.083496  
         C27       1.0000    0.58520   0.69510   0.81460   Biso      1.000     C          0.14526   
         C28       1.0000    0.12580   0.69390   0.51440   Biso      1.000     C          -0.041458999999999996         
         C29       1.0000    0.15430   0.59110   0.45630   Biso      1.000     C          -0.135845           
         C30       1.0000    0.44550   0.51750   0.75470   Biso      1.000     C          0.127224  
         C31       1.0000    0.58000   0.44950   0.73450   Biso      1.000     C          -0.259521           
         C32       1.0000    0.33890   0.91720   0.91130   Biso      1.000     C          0.08383600000000001           
         C33       1.0000    0.71730   0.50460   0.75320   Biso      1.000     C          0.13281300000000001           
         C34       1.0000    0.71840   0.62670   0.79290   Biso      1.000     C          -0.216813           
         C35       1.0000    0.66110   0.08280   0.08870   Biso      1.000     C          0.08383600000000001           
         C36       1.0000    0.87420   0.30610   0.48560   Biso      1.000     C          -0.04145  
         Cd1       1.0000    0.00000   0.00000   0.00000   Biso      1.000     Cd          0.8543860000000001  
         Cd2       1.0000    0.00000   0.00000   0.50000   Biso      1.000     Cd          0.9908370000000001  
         H1        1.0000    0.76780   0.46650   0.29170   Biso      1.000     H          0.129071  
         H2        1.0000    0.42170   0.63250   0.29140   Biso      1.000     H          0.12486900000000001           
         H3        1.0000    0.47370   0.24290   0.92940   Biso      1.000     H          0.119547  
         H4        1.0000    0.72020   0.16840   0.85550   Biso      1.000     H          0.108708  
         H5        1.0000    0.18960   0.33680   0.19490   Biso      1.000     H          0.130114  
         H6        1.0000    0.05910   0.82590   0.29840   Biso      1.000     H          0.10936400000000002           
         H7        1.0000    0.13500   0.68970   0.58540   Biso      1.000     H          0.12050599999999999           
         H8        1.0000    0.68500   0.59640   0.32170   Biso      1.000     H          0.124325  
         H9        1.0000    0.18580   0.50480   0.47990   Biso      1.000     H          0.133946  
         H10       1.0000    0.96280   0.67330   0.95660   Biso      1.000     H          0.11950699999999999           
         H11       1.0000    0.83210   0.48370   0.06980   Biso      1.000     H          0.13961600000000002           
         H12       1.0000    0.64210   0.31400   0.19310   Biso      1.000     H          0.135051  
         H13       1.0000    0.40780   0.09910   0.20650   Biso      1.000     H          0.140306  
         H14       1.0000    0.11440   0.62420   0.20540   Biso      1.000     H          0.124448  
         H15       1.0000    0.05310   0.49590   0.28040   Biso      1.000     H          0.13045299999999999           
         H16       1.0000    0.79670   0.80820   0.21360   Biso      1.000     H          0.11237799999999999           
         H17       1.0000    0.31150   0.16180   0.11760   Biso      1.000     H          0.132779  
         H18       1.0000    0.31880   0.95820   0.84560   Biso      1.000     H          0.107998  
         H19       1.0000    0.68850   0.83820   0.88240   Biso      1.000     H          0.132779  
         H20       1.0000    0.57830   0.36750   0.70860   Biso      1.000     H          0.124868  
         H21       1.0000    0.81040   0.66320   0.80510   Biso      1.000     H          0.130115  
         H22       1.0000    0.35790   0.68600   0.80690   Biso      1.000     H          0.135051  
         H23       1.0000    0.23220   0.53350   0.70830   Biso      1.000     H          0.129071  
         H24       1.0000    0.31500   0.40360   0.67830   Biso      1.000     H          0.124324  
         H25       1.0000    0.94690   0.50410   0.71960   Biso      1.000     H          0.13045299999999999           
         H26       1.0000    0.88560   0.37580   0.79460   Biso      1.000     H          0.124447  
         H27       1.0000    0.59220   0.90090   0.79350   Biso      1.000     H          0.140306  
         H28       1.0000    0.16790   0.51630   0.93020   Biso      1.000     H          0.13961700000000002           
         H29       1.0000    0.03720   0.32670   0.04340   Biso      1.000     H          0.11950699999999999           
         H30       1.0000    0.20330   0.19180   0.78640   Biso      1.000     H          0.11237799999999999           
         H31       1.0000    0.81420   0.49520   0.52010   Biso      1.000     H          0.133946  
         H32       1.0000    0.68120   0.04180   0.15440   Biso      1.000     H          0.107998  
         H33       1.0000    0.94090   0.17410   0.70160   Biso      1.000     H          0.10936400000000002           
         H34       1.0000    0.27980   0.83160   0.14450   Biso      1.000     H          0.108708  
         H35       1.0000    0.52630   0.75710   0.07060   Biso      1.000     H          0.119547  
         H36       1.0000    0.86500   0.31030   0.41460   Biso      1.000     H          0.12050599999999999           
         N1        1.0000    0.90030   0.78970   0.07260   Biso      1.000     N          -0.274857           
         N2        1.0000    0.09970   0.21030   0.92740   Biso      1.000     N          -0.274858           
         N3        1.0000    0.78380   0.61940   0.17450   Biso      1.000     N          0.06590800000000001           
         N4        1.0000    0.08140   0.80460   0.45080   Biso      1.000     N          -0.274876           
         N5        1.0000    0.12720   0.64020   0.35640   Biso      1.000     N          0.070363  
         N6        1.0000    0.75510   0.08430   0.00350   Biso      1.000     N          -0.279447           
         N7        1.0000    0.53250   0.14790   0.06880   Biso      1.000     N          0.076579  
         N8        1.0000    0.21620   0.38060   0.82550   Biso      1.000     N          0.06590900000000001           
         N9        1.0000    0.91860   0.19540   0.54920   Biso      1.000     N          -0.274877           
         N10       1.0000    0.87280   0.35980   0.64360   Biso      1.000     N          0.070363  
         N11       1.0000    0.24490   0.91570   0.99650   Biso      1.000     N          -0.279447           
         N12       1.0000    0.46750   0.85210   0.93120   Biso      1.000     N          0.076579  
         O1        1.0000    0.08640   0.75150   0.77850   Biso      1.000     O          -0.719036           
         O2        1.0000    0.81820   0.03200   0.30060   Biso      1.000     O          -0.7731180000000001           
         O3        1.0000    0.06170   0.10660   0.33420   Biso      1.000     O          -0.720847           
         O4        1.0000    0.91360   0.24850   0.22150   Biso      1.000     O          -0.719036           
         O5        1.0000    0.97670   0.95500   0.83020   Biso      1.000     O          -0.7119300000000001           
         O6        1.0000    0.18180   0.96800   0.69940   Biso      1.000     O          -0.7731180000000001           
         O7        1.0000    0.02330   0.04500   0.16980   Biso      1.000     O          -0.7119300000000001           
         O8        1.0000    0.93830   0.89340   0.66580   Biso      1.000     O          -0.720847           
         S1        1.0000    0.95399   0.11062   0.25590   Biso      1.000     S          1.489773  
         S2        1.0000    0.04601   0.88938   0.74410   Biso      1.000     S          1.489773 