
##########################################################################
#               Crystallographic Information Format file
#               Produced by PyCifRW module
#
#  This is a CIF file.  CIF has been adopted by the International
#  Union of Crystallography as the standard for data archiving and
#  transmission.
#
#  For information on this file format, follow the CIF links at
#  http://www.iucr.org
##########################################################################

data_image0

_cell_length_a                          15.673
_cell_length_b                          15.673
_cell_length_c                          6.95
_cell_angle_alpha                       90
_cell_angle_beta                        90
_cell_angle_gamma                       120
_symmetry_space_group_name_H-M          'P 1'
_symmetry_int_tables_number             1
loop_
  _symmetry_equiv_pos_as_xyz
         'x, y, z' 
loop_
  _atom_site_label
  _atom_site_occupancy
  _atom_site_fract_x
  _atom_site_fract_y
  _atom_site_fract_z
  _atom_site_thermal_displace_type
  _atom_site_B_iso_or_equiv
  _atom_site_type_symbol
  _atom_site_charge
         Au1       1.0000    0.26100   0.73875   0.99981   Biso      1.000     Au          0.069463  
         Au2       1.0000    0.52225   0.26100   0.00019   Biso      1.000     Au          0.07119400000000001           
         Au3       1.0000    0.73900   0.26125   0.00019   Biso      1.000     Au          0.067739  
         Au4       1.0000    0.47775   0.73900   0.99981   Biso      1.000     Au          0.07070499999999999           
         Au5       1.0000    0.26125   0.52225   0.99981   Biso      1.000     Au          0.075978  
         Au6       1.0000    0.73875   0.47775   0.00019   Biso      1.000     Au          0.068393  
         C1        1.0000    0.69790   0.90270   0.72700   Biso      1.000     C          -0.091754           
         C2        1.0000    0.64680   0.48030   0.80200   Biso      1.000     C          0.107244  
         C3        1.0000    0.85200   0.74260   0.75300   Biso      1.000     C          0.22568600000000003           
         C4        1.0000    0.62900   0.71430   0.33900   Biso      1.000     C          0.023183000000000002          
         C5        1.0000    0.71420   0.79400   0.26600   Biso      1.000     C          0.003817  
         C6        1.0000    0.79730   0.78580   0.23300   Biso      1.000     C          0.082508  
         C7        1.0000    0.79520   0.69790   0.27300   Biso      1.000     C          -0.10521099999999999          
         C8        1.0000    0.70990   0.61810   0.34600   Biso      1.000     C          0.159936  
         C9        1.0000    0.74260   0.89060   0.24700   Biso      1.000     C          0.22664499999999999           
         C10       1.0000    0.61810   0.90820   0.65400   Biso      1.000     C          0.175247  
         C11       1.0000    0.09180   0.70990   0.65400   Biso      1.000     C          0.17260899999999998           
         C12       1.0000    0.09730   0.79520   0.72700   Biso      1.000     C          -0.09789500000000001          
         C13       1.0000    0.89060   0.14800   0.75300   Biso      1.000     C          0.22561399999999998           
         C14       1.0000    0.65000   0.16930   0.20100   Biso      1.000     C          0.102009  
         C15       1.0000    0.01150   0.79730   0.76700   Biso      1.000     C          0.102051  
         C16       1.0000    0.48030   0.83350   0.19800   Biso      1.000     C          0.10751300000000001           
         C17       1.0000    0.92020   0.71420   0.73400   Biso      1.000     C          0.002187  
         C18       1.0000    0.71430   0.08530   0.66100   Biso      1.000     C          0.041526  
         C19       1.0000    0.79400   0.07980   0.73400   Biso      1.000     C          0.0010550000000000002         
         C20       1.0000    0.78580   0.98850   0.76700   Biso      1.000     C          0.103603  
         C21       1.0000    0.91470   0.62900   0.66100   Biso      1.000     C          0.04519   
         C22       1.0000    0.48070   0.65000   0.79900   Biso      1.000     C          0.101727  
         C23       1.0000    0.51930   0.35000   0.20100   Biso      1.000     C          0.10120499999999999           
         C24       1.0000    0.35320   0.51970   0.19800   Biso      1.000     C          0.10539200000000001           
         C25       1.0000    0.35000   0.83070   0.79900   Biso      1.000     C          0.101819  
         C26       1.0000    0.25740   0.10940   0.75300   Biso      1.000     C          0.22426   
         C27       1.0000    0.51970   0.16650   0.80200   Biso      1.000     C          0.10531800000000001           
         C28       1.0000    0.29010   0.38190   0.65400   Biso      1.000     C          0.18551600000000001           
         C29       1.0000    0.28570   0.91470   0.33900   Biso      1.000     C          0.039282  
         C30       1.0000    0.20600   0.92020   0.26600   Biso      1.000     C          0.002007  
         C31       1.0000    0.21420   0.01150   0.23300   Biso      1.000     C          0.096986  
         C32       1.0000    0.30210   0.09730   0.27300   Biso      1.000     C          -0.098781           
         C33       1.0000    0.38190   0.09180   0.34600   Biso      1.000     C          0.16855699999999998           
         C34       1.0000    0.10940   0.85200   0.24700   Biso      1.000     C          0.223834  
         C35       1.0000    0.16650   0.64680   0.19800   Biso      1.000     C          0.10632799999999999           
         C36       1.0000    0.20480   0.30210   0.72700   Biso      1.000     C          -0.114621           
         C37       1.0000    0.16930   0.51930   0.79900   Biso      1.000     C          0.10184   
         C38       1.0000    0.28580   0.20600   0.73400   Biso      1.000     C          -0.000175           
         C39       1.0000    0.83350   0.35320   0.80200   Biso      1.000     C          0.106698  
         C40       1.0000    0.37100   0.28570   0.66100   Biso      1.000     C          0.056924  
         C41       1.0000    0.08530   0.37100   0.33900   Biso      1.000     C          0.03902   
         C42       1.0000    0.07980   0.28580   0.26600   Biso      1.000     C          0.001032  
         C43       1.0000    0.98850   0.20270   0.23300   Biso      1.000     C          0.09874   
         C44       1.0000    0.90270   0.20480   0.27300   Biso      1.000     C          -0.093575           
         C45       1.0000    0.90820   0.29010   0.34600   Biso      1.000     C          0.170801  
         C46       1.0000    0.14800   0.25740   0.24700   Biso      1.000     C          0.22707   
         C47       1.0000    0.20270   0.21420   0.76700   Biso      1.000     C          0.10968800000000001           
         C48       1.0000    0.83070   0.48070   0.20100   Biso      1.000     C          0.10361400000000001           
         Fe1       1.0000    0.50000   0.00000   0.50000   Biso      1.000     Fe          0.743549  
         Fe2       1.0000    0.50000   0.50000   0.50000   Biso      1.000     Fe          0.744092  
         Fe3       1.0000    0.00000   0.50000   0.50000   Biso      1.000     Fe          0.744317  
         N1        1.0000    0.89140   0.48550   0.30600   Biso      1.000     N          -0.29778499999999997          
         N2        1.0000    0.40590   0.89140   0.69400   Biso      1.000     N          -0.296994           
         N3        1.0000    0.23370   0.02070   0.77300   Biso      1.000     N          -0.32616100000000003          
         N4        1.0000    0.51500   0.10980   0.69300   Biso      1.000     N          -0.29075700000000004          
         N5        1.0000    0.37360   0.00050   0.37900   Biso      1.000     N          -0.170403           
         N6        1.0000    0.02070   0.78700   0.22700   Biso      1.000     N          -0.32805300000000004          
         N7        1.0000    0.10860   0.51450   0.69400   Biso      1.000     N          -0.29604  
         N8        1.0000    0.89020   0.40520   0.69300   Biso      1.000     N          -0.291998           
         N9        1.0000    0.99950   0.37310   0.37900   Biso      1.000     N          -0.17056300000000002          
         N10       1.0000    0.37310   0.37360   0.62100   Biso      1.000     N          -0.180034           
         N11       1.0000    0.21300   0.23370   0.22700   Biso      1.000     N          -0.332758           
         N12       1.0000    0.40520   0.51500   0.30700   Biso      1.000     N          -0.288724           
         N13       1.0000    0.48550   0.59410   0.69400   Biso      1.000     N          -0.295302           
         N14       1.0000    0.51450   0.40590   0.30600   Biso      1.000     N          -0.294045           
         N15       1.0000    0.59480   0.48500   0.69300   Biso      1.000     N          -0.29020799999999997          
         N16       1.0000    0.78700   0.76630   0.77300   Biso      1.000     N          -0.325166           
         N17       1.0000    0.62690   0.62640   0.37900   Biso      1.000     N          -0.16893  
         N18       1.0000    0.76630   0.97930   0.22700   Biso      1.000     N          -0.34128600000000003          
         N19       1.0000    0.48500   0.89020   0.30700   Biso      1.000     N          -0.291964           
         N20       1.0000    0.62640   0.99950   0.62100   Biso      1.000     N          -0.171318           
         N21       1.0000    0.97930   0.21300   0.77300   Biso      1.000     N          -0.330316           
         N22       1.0000    0.00050   0.62690   0.62100   Biso      1.000     N          -0.171713           
         N23       1.0000    0.10980   0.59480   0.30700   Biso      1.000     N          -0.29139299999999996          
         N24       1.0000    0.59410   0.10860   0.30600   Biso      1.000     N          -0.296788 