
##########################################################################
#               Crystallographic Information Format file
#               Produced by PyCifRW module
#
#  This is a CIF file.  CIF has been adopted by the International
#  Union of Crystallography as the standard for data archiving and
#  transmission.
#
#  For information on this file format, follow the CIF links at
#  http://www.iucr.org
##########################################################################

data_image0

_cell_length_a                          7.013
_cell_length_b                          15.79
_cell_length_c                          15.79
_cell_angle_alpha                       120
_cell_angle_beta                        90
_cell_angle_gamma                       90
_symmetry_space_group_name_H-M          'P 1'
_symmetry_int_tables_number             1
loop_
  _symmetry_equiv_pos_as_xyz
         'x, y, z' 
loop_
  _atom_site_label
  _atom_site_occupancy
  _atom_site_fract_x
  _atom_site_fract_y
  _atom_site_fract_z
  _atom_site_thermal_displace_type
  _atom_site_B_iso_or_equiv
  _atom_site_type_symbol
  _atom_site_charge
         Au1       1.0000    0.99992   0.47778   0.73892   Biso      1.000     Au          0.029868000000000002          
         Au2       1.0000    0.00008   0.73886   0.47778   Biso      1.000     Au          0.029894999999999998          
         Au3       1.0000    0.00008   0.73892   0.26114   Biso      1.000     Au          0.029646  
         Au4       1.0000    0.00008   0.52222   0.26108   Biso      1.000     Au          0.029868000000000002          
         Au5       1.0000    0.99992   0.26114   0.52222   Biso      1.000     Au          0.029894999999999998          
         Au6       1.0000    0.99992   0.26108   0.73886   Biso      1.000     Au          0.029646  
         C1        1.0000    0.34400   0.39000   0.29620   Biso      1.000     C          0.097927  
         C2        1.0000    0.27700   0.31530   0.20690   Biso      1.000     C          -0.129652           
         C3        1.0000    0.24000   0.22340   0.19490   Biso      1.000     C          -0.023790000000000002         
         C4        1.0000    0.27000   0.20630   0.27210   Biso      1.000     C          0.015782  
         C5        1.0000    0.27000   0.72790   0.93420   Biso      1.000     C          0.015782  
         C6        1.0000    0.80700   0.51770   0.34970   Biso      1.000     C          0.045362  
         C7        1.0000    0.24100   0.11420   0.25420   Biso      1.000     C          0.21759299999999998           
         C8        1.0000    0.80400   0.35110   0.51840   Biso      1.000     C          0.059259000000000006          
         C9        1.0000    0.75900   0.25420   0.14000   Biso      1.000     C          0.21754899999999996           
         C10       1.0000    0.33600   0.28100   0.36130   Biso      1.000     C          0.075041  
         C11       1.0000    0.80400   0.16730   0.64890   Biso      1.000     C          0.05968   
         C12       1.0000    0.27000   0.06580   0.79370   Biso      1.000     C          0.015761  
         C13       1.0000    0.33600   0.08030   0.71900   Biso      1.000     C          0.075429  
         C14       1.0000    0.65600   0.29620   0.90620   Biso      1.000     C          0.09812799999999999           
         C15       1.0000    0.24000   0.97150   0.77660   Biso      1.000     C          -0.023379           
         C16       1.0000    0.27700   0.89160   0.68470   Biso      1.000     C          -0.129628           
         C17       1.0000    0.34400   0.90620   0.61000   Biso      1.000     C          0.098248  
         C18       1.0000    0.24100   0.14000   0.88580   Biso      1.000     C          0.217511  
         C19       1.0000    0.80400   0.48160   0.83270   Biso      1.000     C          0.059535000000000005          
         C20       1.0000    0.80700   0.65030   0.16800   Biso      1.000     C          0.045741000000000004          
         C21       1.0000    0.33600   0.63870   0.91970   Biso      1.000     C          0.075282  
         C22       1.0000    0.80700   0.83200   0.48230   Biso      1.000     C          0.045955  
         C23       1.0000    0.72300   0.20690   0.89160   Biso      1.000     C          -0.129642           
         C24       1.0000    0.19300   0.34970   0.83200   Biso      1.000     C          0.045741000000000004          
         C25       1.0000    0.73000   0.27210   0.06580   Biso      1.000     C          0.015803  
         C26       1.0000    0.24100   0.74580   0.86000   Biso      1.000     C          0.217569  
         C27       1.0000    0.34400   0.70380   0.09380   Biso      1.000     C          0.09812799999999999           
         C28       1.0000    0.19600   0.64890   0.48160   Biso      1.000     C          0.059259000000000006          
         C29       1.0000    0.19300   0.48230   0.65030   Biso      1.000     C          0.045362  
         C30       1.0000    0.66400   0.71900   0.63870   Biso      1.000     C          0.075042  
         C31       1.0000    0.73000   0.79370   0.72790   Biso      1.000     C          0.015782  
         C32       1.0000    0.76000   0.77660   0.80510   Biso      1.000     C          -0.023790000000000002         
         C33       1.0000    0.72300   0.68470   0.79310   Biso      1.000     C          -0.129652           
         C34       1.0000    0.65600   0.61000   0.70380   Biso      1.000     C          0.097927  
         C35       1.0000    0.75900   0.88580   0.74580   Biso      1.000     C          0.21759299999999998           
         C36       1.0000    0.19600   0.83270   0.35110   Biso      1.000     C          0.05968   
         C37       1.0000    0.19300   0.16800   0.51770   Biso      1.000     C          0.045955  
         C38       1.0000    0.66400   0.91970   0.28100   Biso      1.000     C          0.075429  
         C39       1.0000    0.73000   0.93420   0.20630   Biso      1.000     C          0.015761  
         C40       1.0000    0.76000   0.02850   0.22340   Biso      1.000     C          -0.023378           
         C41       1.0000    0.72300   0.10840   0.31530   Biso      1.000     C          -0.129628           
         C42       1.0000    0.65600   0.09380   0.39000   Biso      1.000     C          0.098248  
         C43       1.0000    0.75900   0.86000   0.11420   Biso      1.000     C          0.21750999999999998           
         C44       1.0000    0.19600   0.51840   0.16730   Biso      1.000     C          0.059536  
         C45       1.0000    0.27700   0.79310   0.10840   Biso      1.000     C          -0.129642           
         C46       1.0000    0.66400   0.36130   0.08030   Biso      1.000     C          0.07528   
         C47       1.0000    0.76000   0.19490   0.97150   Biso      1.000     C          -0.023551           
         C48       1.0000    0.24000   0.80510   0.02850   Biso      1.000     C          -0.023548           
         Fe1       1.0000    0.50000   0.50000   0.50000   Biso      1.000     Fe          0.48384499999999997           
         Fe2       1.0000    0.50000   0.50000   0.00000   Biso      1.000     Fe          0.49099   
         Fe3       1.0000    0.50000   0.00000   0.50000   Biso      1.000     Fe          0.494676  
         H1        1.0000    0.74755   0.67061   0.85637   Biso      1.000     H          0.11708800000000001           
         H2        1.0000    0.62503   0.53472   0.69397   Biso      1.000     H          0.103457  
         H3        1.0000    0.64026   0.84231   0.26700   Biso      1.000     H          0.105975  
         H4        1.0000    0.81489   0.04029   0.16211   Biso      1.000     H          0.10443399999999999           
         H5        1.0000    0.74755   0.18576   0.32939   Biso      1.000     H          0.117069  
         H6        1.0000    0.62503   0.15925   0.46528   Biso      1.000     H          0.103425  
         H7        1.0000    0.64026   0.42469   0.15769   Biso      1.000     H          0.10597999999999999           
         H8        1.0000    0.81489   0.12182   0.95971   Biso      1.000     H          0.104406  
         H9        1.0000    0.74755   0.14363   0.81424   Biso      1.000     H          0.117103  
         H10       1.0000    0.62503   0.30603   0.84075   Biso      1.000     H          0.103478  
         H11       1.0000    0.35974   0.26700   0.42469   Biso      1.000     H          0.105986  
         H12       1.0000    0.18511   0.16211   0.12182   Biso      1.000     H          0.104353  
         H13       1.0000    0.25245   0.32939   0.14363   Biso      1.000     H          0.11708800000000001           
         H14       1.0000    0.37497   0.46528   0.30603   Biso      1.000     H          0.10345599999999999           
         H15       1.0000    0.35974   0.15769   0.73300   Biso      1.000     H          0.105975  
         H16       1.0000    0.18511   0.95971   0.83789   Biso      1.000     H          0.10443399999999999           
         H17       1.0000    0.25245   0.81424   0.67061   Biso      1.000     H          0.117069  
         H18       1.0000    0.37497   0.84075   0.53472   Biso      1.000     H          0.103425  
         H19       1.0000    0.35974   0.57531   0.84231   Biso      1.000     H          0.10597999999999999           
         H20       1.0000    0.18511   0.87818   0.04029   Biso      1.000     H          0.104406  
         H21       1.0000    0.81489   0.83789   0.87818   Biso      1.000     H          0.104353  
         H22       1.0000    0.64026   0.73300   0.57531   Biso      1.000     H          0.105986  
         H23       1.0000    0.37497   0.69397   0.15925   Biso      1.000     H          0.103478  
         H24       1.0000    0.25245   0.85637   0.18576   Biso      1.000     H          0.117103  
         N1        1.0000    0.22800   0.76920   0.79500   Biso      1.000     N          -0.341327           
         N2        1.0000    0.30500   0.59740   0.48480   Biso      1.000     N          -0.28076100000000004          
         N3        1.0000    0.30730   0.48470   0.59690   Biso      1.000     N          -0.29073699999999997          
         N4        1.0000    0.62690   0.62720   0.62670   Biso      1.000     N          -0.147575           
         N5        1.0000    0.77200   0.97420   0.76920   Biso      1.000     N          -0.341442           
         N6        1.0000    0.30500   0.88740   0.40260   Biso      1.000     N          -0.28381300000000004          
         N7        1.0000    0.30730   0.11220   0.51530   Biso      1.000     N          -0.293049           
         N8        1.0000    0.62690   0.99950   0.37280   Biso      1.000     N          -0.14921099999999998          
         N9        1.0000    0.77200   0.79500   0.02580   Biso      1.000     N          -0.341262           
         N10       1.0000    0.30500   0.51520   0.11260   Biso      1.000     N          -0.282802           
         N11       1.0000    0.30730   0.40310   0.88780   Biso      1.000     N          -0.292362           
         N12       1.0000    0.62690   0.37330   0.00050   Biso      1.000     N          -0.148525           
         N13       1.0000    0.69500   0.40260   0.51520   Biso      1.000     N          -0.28076100000000004          
         N14       1.0000    0.69270   0.51530   0.40310   Biso      1.000     N          -0.29073699999999997          
         N15       1.0000    0.37310   0.37280   0.37330   Biso      1.000     N          -0.147575           
         N16       1.0000    0.22800   0.02580   0.23080   Biso      1.000     N          -0.341442           
         N17       1.0000    0.69500   0.11260   0.59740   Biso      1.000     N          -0.28381300000000004          
         N18       1.0000    0.69270   0.88780   0.48470   Biso      1.000     N          -0.293049           
         N19       1.0000    0.37310   0.00050   0.62720   Biso      1.000     N          -0.14921099999999998          
         N20       1.0000    0.22800   0.20500   0.97420   Biso      1.000     N          -0.341262           
         N21       1.0000    0.69500   0.48480   0.88740   Biso      1.000     N          -0.282803           
         N22       1.0000    0.69270   0.59690   0.11220   Biso      1.000     N          -0.292362           
         N23       1.0000    0.77200   0.23080   0.20500   Biso      1.000     N          -0.34132399999999996          
         N24       1.0000    0.37310   0.62670   0.99950   Biso      1.000     N          -0.148526 