
##########################################################################
#               Crystallographic Information Format file
#               Produced by PyCifRW module
#
#  This is a CIF file.  CIF has been adopted by the International
#  Union of Crystallography as the standard for data archiving and
#  transmission.
#
#  For information on this file format, follow the CIF links at
#  http://www.iucr.org
##########################################################################

data_image0

_cell_length_a                          10.7833
_cell_length_b                          16.6332
_cell_length_c                          16.6332
_cell_angle_alpha                       90
_cell_angle_beta                        90
_cell_angle_gamma                       90
_symmetry_space_group_name_H-M          'P 1'
_symmetry_int_tables_number             1
loop_
  _symmetry_equiv_pos_as_xyz
         'x, y, z' 
loop_
  _atom_site_label
  _atom_site_occupancy
  _atom_site_fract_x
  _atom_site_fract_y
  _atom_site_fract_z
  _atom_site_thermal_displace_type
  _atom_site_B_iso_or_equiv
  _atom_site_type_symbol
  _atom_site_charge
         C1        1.0000    0.93090   0.65080   0.08910   Biso      1.000     C          -0.040455           
         C2        1.0000    0.80050   0.19000   0.54400   Biso      1.000     C          0.618575  
         C3        1.0000    0.03770   0.26900   0.78790   Biso      1.000     C          0.621772  
         C4        1.0000    0.14200   0.01360   0.64480   Biso      1.000     C          0.64772   
         C5        1.0000    0.47370   0.89610   0.40410   Biso      1.000     C          -0.09341100000000001          
         C6        1.0000    0.40290   0.82590   0.39770   Biso      1.000     C          -0.013563           
         C7        1.0000    0.42510   0.77380   0.33580   Biso      1.000     C          -0.117068           
         C8        1.0000    0.51680   0.78700   0.28000   Biso      1.000     C          -0.02416  
         C9        1.0000    0.58960   0.85620   0.28700   Biso      1.000     C          -0.11898800000000001          
         C10       1.0000    0.56910   0.91090   0.34920   Biso      1.000     C          -0.040455           
         C11       1.0000    0.06910   0.08910   0.65080   Biso      1.000     C          -0.040455           
         C12       1.0000    0.30050   0.81000   0.45600   Biso      1.000     C          0.618576  
         C13       1.0000    0.64200   0.98640   0.35520   Biso      1.000     C          0.64772   
         C14       1.0000    0.22370   0.09590   0.39610   Biso      1.000     C          -0.09341100000000001          
         C15       1.0000    0.15290   0.10230   0.32590   Biso      1.000     C          -0.013563999999999998         
         C16       1.0000    0.17510   0.16420   0.27380   Biso      1.000     C          -0.117068           
         C17       1.0000    0.26680   0.22000   0.28700   Biso      1.000     C          -0.02416  
         C18       1.0000    0.33960   0.21300   0.35620   Biso      1.000     C          -0.11898800000000001          
         C19       1.0000    0.31910   0.15080   0.41090   Biso      1.000     C          -0.040455           
         C20       1.0000    0.05050   0.04400   0.31000   Biso      1.000     C          0.618576  
         C21       1.0000    0.28770   0.28790   0.23100   Biso      1.000     C          0.6217729999999999  
         C22       1.0000    0.53770   0.73100   0.21210   Biso      1.000     C          0.6217729999999999  
         C23       1.0000    0.39200   0.14480   0.48640   Biso      1.000     C          0.64772   
         C24       1.0000    0.08960   0.14380   0.71300   Biso      1.000     C          -0.11898800000000001          
         C25       1.0000    0.92510   0.22620   0.66420   Biso      1.000     C          -0.117076           
         C26       1.0000    0.52630   0.40410   0.89610   Biso      1.000     C          -0.09341  
         C27       1.0000    0.59710   0.39770   0.82590   Biso      1.000     C          -0.013563999999999998         
         C28       1.0000    0.57490   0.33580   0.77380   Biso      1.000     C          -0.117068           
         C29       1.0000    0.48320   0.28000   0.78700   Biso      1.000     C          -0.02416  
         C30       1.0000    0.41040   0.28700   0.85620   Biso      1.000     C          -0.11898800000000001          
         C31       1.0000    0.43090   0.34920   0.91090   Biso      1.000     C          -0.040455           
         C32       1.0000    0.69950   0.45600   0.81000   Biso      1.000     C          0.618576  
         C33       1.0000    0.46230   0.21210   0.73100   Biso      1.000     C          0.6217729999999999  
         C34       1.0000    0.35800   0.35520   0.98640   Biso      1.000     C          0.64772   
         C35       1.0000    0.01680   0.21300   0.72000   Biso      1.000     C          -0.024159           
         C36       1.0000    0.02630   0.59590   0.10390   Biso      1.000     C          -0.09341100000000001          
         C37       1.0000    0.07490   0.66420   0.22620   Biso      1.000     C          -0.117076           
         C38       1.0000    0.98320   0.72000   0.21300   Biso      1.000     C          -0.024159           
         C39       1.0000    0.91040   0.71300   0.14380   Biso      1.000     C          -0.11898800000000001          
         C40       1.0000    0.44950   0.69000   0.95600   Biso      1.000     C          0.618575  
         C41       1.0000    0.19950   0.54400   0.19000   Biso      1.000     C          0.618575  
         C42       1.0000    0.96230   0.78790   0.26900   Biso      1.000     C          0.6217729999999999  
         C43       1.0000    0.85800   0.64480   0.01360   Biso      1.000     C          0.64772   
         C44       1.0000    0.97370   0.10390   0.59590   Biso      1.000     C          -0.09341100000000001          
         C45       1.0000    0.90290   0.17410   0.60230   Biso      1.000     C          -0.013557           
         C46       1.0000    0.09710   0.60230   0.17410   Biso      1.000     C          -0.013557           
         C47       1.0000    0.72370   0.90410   0.60390   Biso      1.000     C          -0.09341100000000001          
         C48       1.0000    0.65290   0.89770   0.67410   Biso      1.000     C          -0.013563999999999998         
         C49       1.0000    0.67510   0.83580   0.72620   Biso      1.000     C          -0.117068           
         C50       1.0000    0.16040   0.64380   0.78700   Biso      1.000     C          -0.118987           
         C51       1.0000    0.23320   0.71300   0.78000   Biso      1.000     C          -0.024163           
         C52       1.0000    0.32490   0.72620   0.83580   Biso      1.000     C          -0.11707200000000001          
         C53       1.0000    0.34710   0.67410   0.89770   Biso      1.000     C          -0.013557           
         C54       1.0000    0.27630   0.60390   0.90410   Biso      1.000     C          -0.09341100000000001          
         C55       1.0000    0.60800   0.48640   0.14480   Biso      1.000     C          0.64772   
         C56       1.0000    0.18090   0.58910   0.84920   Biso      1.000     C          -0.040455           
         C57       1.0000    0.71230   0.23100   0.28790   Biso      1.000     C          0.6217729999999999  
         C58       1.0000    0.68090   0.41090   0.15080   Biso      1.000     C          -0.040455           
         C59       1.0000    0.66040   0.35620   0.21300   Biso      1.000     C          -0.118987           
         C60       1.0000    0.73320   0.28700   0.22000   Biso      1.000     C          -0.024162           
         C61       1.0000    0.82490   0.27380   0.16420   Biso      1.000     C          -0.11707200000000001          
         C62       1.0000    0.84710   0.32590   0.10230   Biso      1.000     C          -0.013557           
         C63       1.0000    0.77630   0.39610   0.09590   Biso      1.000     C          -0.09341100000000001          
         C64       1.0000    0.94950   0.31000   0.04400   Biso      1.000     C          0.618575  
         C65       1.0000    0.10800   0.51360   0.85520   Biso      1.000     C          0.64772   
         C66       1.0000    0.21230   0.76900   0.71210   Biso      1.000     C          0.6217729999999999  
         C67       1.0000    0.76680   0.78000   0.71300   Biso      1.000     C          -0.02416  
         C68       1.0000    0.83960   0.78700   0.64380   Biso      1.000     C          -0.11898800000000001          
         C69       1.0000    0.81910   0.84920   0.58910   Biso      1.000     C          -0.040455           
         C70       1.0000    0.55050   0.95600   0.69000   Biso      1.000     C          0.618576  
         C71       1.0000    0.78770   0.71210   0.76900   Biso      1.000     C          0.6217729999999999  
         C72       1.0000    0.89200   0.85520   0.51360   Biso      1.000     C          0.64772   
         H1        1.0000    0.84780   0.75010   0.13410   Biso      1.000     H          0.125109  
         H2        1.0000    0.79280   0.43290   0.05520   Biso      1.000     H          0.13178499999999999           
         H3        1.0000    0.87350   0.22790   0.16880   Biso      1.000     H          0.119466  
         H4        1.0000    0.59780   0.36590   0.25010   Biso      1.000     H          0.125109  
         H5        1.0000    0.29280   0.56710   0.94480   Biso      1.000     H          0.13178499999999999           
         H6        1.0000    0.37350   0.77210   0.83120   Biso      1.000     H          0.119466  
         H7        1.0000    0.09780   0.63410   0.74990   Biso      1.000     H          0.125109  
         H8        1.0000    0.54280   0.44480   0.93290   Biso      1.000     H          0.13178499999999999           
         H9        1.0000    0.62350   0.33120   0.72790   Biso      1.000     H          0.11946500000000002           
         H10       1.0000    0.34780   0.24990   0.86590   Biso      1.000     H          0.125109  
         H11       1.0000    0.90220   0.74990   0.63410   Biso      1.000     H          0.125109  
         H12       1.0000    0.62650   0.83120   0.77210   Biso      1.000     H          0.11946500000000002           
         H13       1.0000    0.70720   0.94480   0.56710   Biso      1.000     H          0.13178499999999999           
         H14       1.0000    0.40220   0.25010   0.36590   Biso      1.000     H          0.125109  
         H15       1.0000    0.12650   0.16880   0.22790   Biso      1.000     H          0.11946500000000002           
         H16       1.0000    0.20720   0.05520   0.43290   Biso      1.000     H          0.13178499999999999           
         H17       1.0000    0.65220   0.86590   0.24990   Biso      1.000     H          0.125109  
         H18       1.0000    0.04280   0.55520   0.06710   Biso      1.000     H          0.13178499999999999           
         H19       1.0000    0.45720   0.93290   0.44480   Biso      1.000     H          0.13178499999999999           
         H20       1.0000    0.15220   0.13410   0.75010   Biso      1.000     H          0.125109  
         H21       1.0000    0.87650   0.27210   0.66880   Biso      1.000     H          0.119466  
         H22       1.0000    0.95720   0.06710   0.55520   Biso      1.000     H          0.13178499999999999           
         H23       1.0000    0.12350   0.66880   0.27210   Biso      1.000     H          0.119466  
         H24       1.0000    0.37650   0.72790   0.33120   Biso      1.000     H          0.11946500000000002           
         Li1       1.0000    0.06070   0.74420   0.43240   Biso      1.000     Li          0.8667090000000001  
         Li2       1.0000    0.93930   0.43240   0.74420   Biso      1.000     Li          0.8667090000000001  
         Li3       1.0000    0.56070   0.25580   0.56760   Biso      1.000     Li          0.8667090000000001  
         Li4       1.0000    0.81070   0.06760   0.24420   Biso      1.000     Li          0.8667090000000001  
         Li5       1.0000    0.31070   0.93240   0.75580   Biso      1.000     Li          0.8667090000000001  
         Li6       1.0000    0.68930   0.75580   0.93240   Biso      1.000     Li          0.8667090000000001  
         Li7       1.0000    0.43930   0.56760   0.25580   Biso      1.000     Li          0.8667090000000001  
         Li8       1.0000    0.18930   0.24420   0.06760   Biso      1.000     Li          0.8667090000000001  
         O1        1.0000    0.41190   0.38610   0.04590   Biso      1.000     O          -0.53423  
         O2        1.0000    0.25020   0.32570   0.98898   Biso      1.000     O          -0.676888           
         O3        1.0000    0.21400   0.48830   0.13690   Biso      1.000     O          -0.554083           
         O4        1.0000    0.23590   0.74820   0.44850   Biso      1.000     O          -0.6738569999999999           
         O5        1.0000    0.26410   0.55150   0.25180   Biso      1.000     O          -0.6738569999999999           
         O6        1.0000    0.01690   0.79000   0.33420   Biso      1.000     O          -0.692102           
         O7        1.0000    0.89010   0.84540   0.25000   Biso      1.000     O          -0.5547350000000001           
         O8        1.0000    0.91190   0.61390   0.95410   Biso      1.000     O          -0.53423  
         O9        1.0000    0.75020   0.67430   0.01102   Biso      1.000     O          -0.676888           
         O10       1.0000    0.78600   0.13690   0.48830   Biso      1.000     O          -0.554082           
         O11       1.0000    0.73590   0.25180   0.55150   Biso      1.000     O          -0.6738569999999999           
         O12       1.0000    0.39010   0.15460   0.75000   Biso      1.000     O          -0.5547350000000001           
         O13       1.0000    0.51690   0.21000   0.66580   Biso      1.000     O          -0.692102           
         O14       1.0000    0.16190   0.45410   0.88610   Biso      1.000     O          -0.53423  
         O15       1.0000    0.71400   0.51170   0.86310   Biso      1.000     O          -0.554083           
         O16       1.0000    0.00020   0.51102   0.82570   Biso      1.000     O          -0.676888           
         O17       1.0000    0.98310   0.33420   0.79000   Biso      1.000     O          -0.6921010000000001           
         O18       1.0000    0.14010   0.75000   0.65460   Biso      1.000     O          -0.5547350000000001           
         O19       1.0000    0.26690   0.83420   0.71000   Biso      1.000     O          -0.692102           
         O20       1.0000    0.51410   0.75180   0.94850   Biso      1.000     O          -0.6738569999999999           
         O21       1.0000    0.46400   0.63690   0.01170   Biso      1.000     O          -0.554082           
         O22       1.0000    0.50020   0.48898   0.17430   Biso      1.000     O          -0.676888           
         O23       1.0000    0.66190   0.54590   0.11390   Biso      1.000     O          -0.53423  
         O24       1.0000    0.64010   0.25000   0.34540   Biso      1.000     O          -0.5547350000000001           
         O25       1.0000    0.76690   0.16580   0.29000   Biso      1.000     O          -0.692102           
         O26       1.0000    0.76410   0.44850   0.74820   Biso      1.000     O          -0.6738569999999999           
         O27       1.0000    0.10990   0.25000   0.84540   Biso      1.000     O          -0.5547350000000001           
         O28       1.0000    0.96400   0.36310   0.98830   Biso      1.000     O          -0.554082           
         O29       1.0000    0.24980   0.01102   0.67430   Biso      1.000     O          -0.676888           
         O30       1.0000    0.99980   0.82570   0.51102   Biso      1.000     O          -0.676888           
         O31       1.0000    0.83810   0.88610   0.45410   Biso      1.000     O          -0.53423  
         O32       1.0000    0.85990   0.65460   0.75000   Biso      1.000     O          -0.5547350000000001           
         O33       1.0000    0.73310   0.71000   0.83420   Biso      1.000     O          -0.692102           
         O34       1.0000    0.48590   0.94850   0.75180   Biso      1.000     O          -0.6738569999999999           
         O35       1.0000    0.08810   0.95410   0.61390   Biso      1.000     O          -0.53423  
         O36       1.0000    0.49980   0.17430   0.48898   Biso      1.000     O          -0.676888           
         O37       1.0000    0.33810   0.11390   0.54590   Biso      1.000     O          -0.53423  
         O38       1.0000    0.35990   0.34540   0.25000   Biso      1.000     O          -0.5547350000000001           
         O39       1.0000    0.53600   0.01170   0.63690   Biso      1.000     O          -0.554082           
         O40       1.0000    0.98590   0.05150   0.24820   Biso      1.000     O          -0.6738569999999999           
         O41       1.0000    0.03600   0.98830   0.36310   Biso      1.000     O          -0.554082           
         O42       1.0000    0.74980   0.98898   0.32570   Biso      1.000     O          -0.676888           
         O43       1.0000    0.58810   0.04590   0.38610   Biso      1.000     O          -0.53423  
         O44       1.0000    0.60990   0.75000   0.15460   Biso      1.000     O          -0.5547350000000001           
         O45       1.0000    0.48310   0.66580   0.21000   Biso      1.000     O          -0.692102           
         O46       1.0000    0.01410   0.24820   0.05150   Biso      1.000     O          -0.6738569999999999           
         O47       1.0000    0.28600   0.86310   0.51170   Biso      1.000     O          -0.554082           
         O48       1.0000    0.23310   0.29000   0.16580   Biso      1.000     O          -0.692102           
         Zn1       1.0000    0.85041   0.58520   0.84790   Biso      1.000     Zn          0.9624020000000001  
         Zn2       1.0000    0.10041   0.34790   0.91480   Biso      1.000     Zn          0.9624020000000001  
         Zn3       1.0000    0.60041   0.65210   0.08520   Biso      1.000     Zn          0.9624020000000001  
         Zn4       1.0000    0.14959   0.84790   0.58520   Biso      1.000     Zn          0.9624020000000001  
         Zn5       1.0000    0.89959   0.91480   0.34790   Biso      1.000     Zn          0.9624020000000001  
         Zn6       1.0000    0.64959   0.15210   0.41480   Biso      1.000     Zn          0.9624020000000001  
         Zn7       1.0000    0.39959   0.08520   0.65210   Biso      1.000     Zn          0.9624020000000001  
         Zn8       1.0000    0.35041   0.41480   0.15210   Biso      1.000     Zn          0.9624020000000001 