
##########################################################################
#               Crystallographic Information Format file
#               Produced by PyCifRW module
#
#  This is a CIF file.  CIF has been adopted by the International
#  Union of Crystallography as the standard for data archiving and
#  transmission.
#
#  For information on this file format, follow the CIF links at
#  http://www.iucr.org
##########################################################################

data_image0

_cell_length_a                          10.192
_cell_length_b                          11.611
_cell_length_c                          16.848
_cell_angle_alpha                       110.04
_cell_angle_beta                        97.66
_cell_angle_gamma                       92.04
_symmetry_space_group_name_H-M          'P 1'
_symmetry_int_tables_number             1
loop_
  _symmetry_equiv_pos_as_xyz
         'x, y, z' 
loop_
  _atom_site_label
  _atom_site_occupancy
  _atom_site_fract_x
  _atom_site_fract_y
  _atom_site_fract_z
  _atom_site_thermal_displace_type
  _atom_site_B_iso_or_equiv
  _atom_site_type_symbol
  _atom_site_charge
         C1        1.0000    0.51000   0.71930   0.07030   Biso      1.000     C          0.593214  
         C2        1.0000    0.98920   0.24660   0.37540   Biso      1.000     C          -0.14652  
         C3        1.0000    0.34800   0.22170   0.00250   Biso      1.000     C          0.62589   
         C4        1.0000    0.83300   0.07830   0.25350   Biso      1.000     C          0.578969  
         C5        1.0000    0.33000   0.40690   0.40070   Biso      1.000     C          0.584444  
         C6        1.0000    0.65200   0.77830   0.99750   Biso      1.000     C          0.62589   
         C7        1.0000    0.16500   0.63930   0.35500   Biso      1.000     C          -0.105326           
         C8        1.0000    0.54900   0.20110   0.43630   Biso      1.000     C          0.56863   
         C9        1.0000    0.39800   0.05340   0.42590   Biso      1.000     C          0.6167520000000001  
         C10       1.0000    0.67000   0.59310   0.59930   Biso      1.000     C          0.584443  
         C11       1.0000    0.16700   0.92170   0.74650   Biso      1.000     C          0.578969  
         C12       1.0000    0.01080   0.75340   0.62460   Biso      1.000     C          -0.14652  
         C13       1.0000    0.89570   0.67460   0.58930   Biso      1.000     C          -0.095575           
         C14       1.0000    0.78920   0.68630   0.63440   Biso      1.000     C          -0.048366           
         C15       1.0000    0.79790   0.77680   0.71480   Biso      1.000     C          -0.116211           
         C16       1.0000    0.49000   0.28070   0.92970   Biso      1.000     C          0.593214  
         C17       1.0000    0.91310   0.85560   0.75010   Biso      1.000     C          -0.109325           
         C18       1.0000    0.24200   0.87600   0.15190   Biso      1.000     C          0.588118  
         C19       1.0000    0.75500   0.58760   0.13390   Biso      1.000     C          0.551975  
         C20       1.0000    0.93900   0.75520   0.21390   Biso      1.000     C          -0.115853           
         C21       1.0000    0.05400   0.81930   0.21920   Biso      1.000     C          -0.114641           
         C22       1.0000    0.12300   0.80720   0.14380   Biso      1.000     C          -0.010202           
         C23       1.0000    0.06100   0.71970   0.07120   Biso      1.000     C          -0.097549           
         C24       1.0000    0.95100   0.64700   0.06500   Biso      1.000     C          -0.112302           
         C25       1.0000    0.88700   0.66440   0.13610   Biso      1.000     C          -0.018106999999999998         
         C26       1.0000    0.80300   0.57200   0.35860   Biso      1.000     C          0.5708300000000001  
         C27       1.0000    0.32000   0.54500   0.24910   Biso      1.000     C          0.587588  
         C28       1.0000    0.07600   0.46500   0.23380   Biso      1.000     C          -0.078721           
         C29       1.0000    0.95400   0.46890   0.25980   Biso      1.000     C          -0.10066699999999999          
         C30       1.0000    0.93400   0.56050   0.33340   Biso      1.000     C          0.006772  
         C31       1.0000    0.19000   0.55170   0.27950   Biso      1.000     C          -0.035176           
         C32       1.0000    0.01950   0.84390   0.70500   Biso      1.000     C          -0.023132           
         C33       1.0000    0.10430   0.32540   0.41070   Biso      1.000     C          -0.095575           
         C34       1.0000    0.04900   0.65150   0.38450   Biso      1.000     C          -0.12275499999999999          
         C35       1.0000    0.45100   0.79890   0.56370   Biso      1.000     C          0.56863   
         C36       1.0000    0.06600   0.43950   0.66660   Biso      1.000     C          0.006770999999999999          
         C37       1.0000    0.21080   0.31370   0.36560   Biso      1.000     C          -0.048366           
         C38       1.0000    0.68000   0.45500   0.75090   Biso      1.000     C          0.587588  
         C39       1.0000    0.19700   0.42800   0.64140   Biso      1.000     C          0.5708310000000001  
         C40       1.0000    0.11300   0.33560   0.86390   Biso      1.000     C          -0.018109           
         C41       1.0000    0.04900   0.35300   0.93500   Biso      1.000     C          -0.11232  
         C42       1.0000    0.95100   0.34850   0.61550   Biso      1.000     C          -0.12278399999999999          
         C43       1.0000    0.83500   0.36070   0.64500   Biso      1.000     C          -0.105296           
         C44       1.0000    0.81000   0.44830   0.72050   Biso      1.000     C          -0.035179           
         C45       1.0000    0.93900   0.28030   0.92880   Biso      1.000     C          -0.09754600000000001          
         C46       1.0000    0.04600   0.53110   0.74020   Biso      1.000     C          -0.100665           
         C47       1.0000    0.92400   0.53500   0.76620   Biso      1.000     C          -0.07871900000000001          
         C48       1.0000    0.94600   0.18070   0.78080   Biso      1.000     C          -0.11467000000000001          
         C49       1.0000    0.06100   0.24480   0.78610   Biso      1.000     C          -0.115824           
         C50       1.0000    0.24500   0.41240   0.86610   Biso      1.000     C          0.551975  
         C51       1.0000    0.75800   0.12400   0.84810   Biso      1.000     C          0.588117  
         C52       1.0000    0.98050   0.15610   0.29500   Biso      1.000     C          -0.023133           
         C53       1.0000    0.08690   0.14440   0.24990   Biso      1.000     C          -0.109324           
         C54       1.0000    0.60200   0.94660   0.57410   Biso      1.000     C          0.6167520000000001  
         C55       1.0000    0.20210   0.22320   0.28520   Biso      1.000     C          -0.116211           
         C56       1.0000    0.87700   0.19280   0.85620   Biso      1.000     C          -0.010187           
         Cd1       1.0000    0.44565   0.03099   0.74580   Biso      1.000     Cd          0.943774  
         Cd2       1.0000    0.44790   0.43226   0.58961   Biso      1.000     Cd          0.972557  
         Cd3       1.0000    0.55210   0.56774   0.41039   Biso      1.000     Cd          0.972557  
         Cd4       1.0000    0.55435   0.96901   0.25420   Biso      1.000     Cd          0.943774  
         Cd5       1.0000    0.52210   0.47250   0.13116   Biso      1.000     Cd          0.915441  
         Cd6       1.0000    0.47790   0.52750   0.86884   Biso      1.000     Cd          0.915441  
         H1        1.0000    0.09700   0.70870   0.02150   Biso      1.000     H          0.11367200000000001           
         H2        1.0000    0.28000   0.07810   0.90780   Biso      1.000     H          0.311165  
         H3        1.0000    0.22310   0.15630   0.05570   Biso      1.000     H          0.383418  
         H4        1.0000    0.08200   0.74560   0.59440   Biso      1.000     H          0.10338699999999999           
         H5        1.0000    0.88980   0.61410   0.53550   Biso      1.000     H          0.11309300000000001           
         H6        1.0000    0.03950   0.71440   0.43490   Biso      1.000     H          0.12108599999999999           
         H7        1.0000    0.29750   0.27370   0.11470   Biso      1.000     H          0.367975  
         H8        1.0000    0.72670   0.78460   0.74500   Biso      1.000     H          0.109628  
         H9        1.0000    0.66880   0.85220   0.47520   Biso      1.000     H          0.32760300000000003           
         H10       1.0000    0.88470   0.40980   0.22780   Biso      1.000     H          0.12700899999999998           
         H11       1.0000    0.08630   0.40260   0.18340   Biso      1.000     H          0.10699700000000001           
         H12       1.0000    0.30970   0.77380   0.62040   Biso      1.000     H          0.359406  
         H13       1.0000    0.91890   0.91610   0.80390   Biso      1.000     H          0.116131  
         H14       1.0000    0.32080   0.66650   0.54240   Biso      1.000     H          0.373204  
         H15       1.0000    0.61290   0.41600   0.94980   Biso      1.000     H          0.36672899999999997           
         H16       1.0000    0.91780   0.58550   0.01330   Biso      1.000     H          0.116749  
         H17       1.0000    0.09280   0.87420   0.27250   Biso      1.000     H          0.09879099999999999           
         H18       1.0000    0.58300   0.33510   0.85820   Biso      1.000     H          0.366532  
         H19       1.0000    0.89490   0.77110   0.26100   Biso      1.000     H          0.12331700000000001           
         H20       1.0000    0.34020   0.88730   0.35780   Biso      1.000     H          0.378619  
         H21       1.0000    0.72950   0.06450   0.56670   Biso      1.000     H          0.37071   
         H22       1.0000    0.76340   0.30530   0.61170   Biso      1.000     H          0.091598  
         H23       1.0000    0.96050   0.28560   0.56510   Biso      1.000     H          0.12108800000000002           
         H24       1.0000    0.11530   0.59020   0.77220   Biso      1.000     H          0.12700799999999998           
         H25       1.0000    0.91370   0.59740   0.81660   Biso      1.000     H          0.10699700000000001           
         H26       1.0000    0.08220   0.41450   0.98670   Biso      1.000     H          0.11675   
         H27       1.0000    0.90300   0.29130   0.97850   Biso      1.000     H          0.11367200000000001           
         H28       1.0000    0.90720   0.12580   0.72750   Biso      1.000     H          0.09879299999999999           
         H29       1.0000    0.10510   0.22890   0.73900   Biso      1.000     H          0.12331500000000001           
         H30       1.0000    0.08110   0.08390   0.19610   Biso      1.000     H          0.116131  
         H31       1.0000    0.27330   0.21540   0.25500   Biso      1.000     H          0.109628  
         H32       1.0000    0.23660   0.69470   0.38830   Biso      1.000     H          0.0916    
         H33       1.0000    0.91800   0.25440   0.40560   Biso      1.000     H          0.10338699999999999           
         H34       1.0000    0.72000   0.92190   0.09220   Biso      1.000     H          0.311165  
         H35       1.0000    0.11020   0.38590   0.46450   Biso      1.000     H          0.113094  
         H36       1.0000    0.65980   0.11270   0.64220   Biso      1.000     H          0.378618  
         H37       1.0000    0.38710   0.58400   0.05020   Biso      1.000     H          0.36672899999999997           
         H38       1.0000    0.41700   0.66490   0.14180   Biso      1.000     H          0.366532  
         H39       1.0000    0.33120   0.14780   0.52480   Biso      1.000     H          0.32760300000000003           
         H40       1.0000    0.67920   0.33350   0.45760   Biso      1.000     H          0.373204  
         H41       1.0000    0.69030   0.22620   0.37960   Biso      1.000     H          0.359406  
         H42       1.0000    0.77690   0.84370   0.94430   Biso      1.000     H          0.383418  
         H43       1.0000    0.27050   0.93550   0.43330   Biso      1.000     H          0.37071   
         H44       1.0000    0.70250   0.72630   0.88530   Biso      1.000     H          0.367975  
         N1        1.0000    0.34900   0.73950   0.57700   Biso      1.000     N          -0.699419           
         N2        1.0000    0.61200   0.85360   0.50890   Biso      1.000     N          -0.26122399999999996          
         N3        1.0000    0.52200   0.75430   0.49700   Biso      1.000     N          -0.351244           
         N4        1.0000    0.32800   0.94640   0.40300   Biso      1.000     N          -0.7283430000000001           
         N5        1.0000    0.41700   0.17710   0.87720   Biso      1.000     N          -0.34572600000000003          
         N6        1.0000    0.57100   0.35190   0.91040   Biso      1.000     N          -0.71665  
         N7        1.0000    0.50000   0.08180   0.38550   Biso      1.000     N          -0.590271           
         N8        1.0000    0.28200   0.21660   0.06510   Biso      1.000     N          -0.729567           
         N9        1.0000    0.44100   0.31390   0.01050   Biso      1.000     N          -0.59612  
         N10       1.0000    0.38800   0.14640   0.49110   Biso      1.000     N          -0.26122399999999996          
         N11       1.0000    0.67200   0.05360   0.59700   Biso      1.000     N          -0.7283430000000001           
         N12       1.0000    0.33400   0.14360   0.92640   Biso      1.000     N          -0.252612           
         N13       1.0000    0.50000   0.91820   0.61450   Biso      1.000     N          -0.590272           
         N14       1.0000    0.65100   0.26050   0.42300   Biso      1.000     N          -0.699419           
         N15       1.0000    0.71800   0.78340   0.93490   Biso      1.000     N          -0.729568           
         N16       1.0000    0.55900   0.68610   0.98950   Biso      1.000     N          -0.59612  
         N17       1.0000    0.66600   0.85640   0.07360   Biso      1.000     N          -0.25261500000000003          
         N18       1.0000    0.58300   0.82290   0.12280   Biso      1.000     N          -0.345722           
         N19       1.0000    0.47800   0.24570   0.50300   Biso      1.000     N          -0.351244           
         N20       1.0000    0.42900   0.64810   0.08960   Biso      1.000     N          -0.71665  
         O1        1.0000    0.77300   0.67610   0.40440   Biso      1.000     O          -0.5947560000000001           
         O2        1.0000    0.34180   0.48150   0.47300   Biso      1.000     O          -0.6089220000000001           
         O3        1.0000    0.41400   0.39530   0.35320   Biso      1.000     O          -0.555525           
         O4        1.0000    0.83600   0.04300   0.17020   Biso      1.000     O          -0.614873           
         O5        1.0000    0.77100   0.06160   0.29910   Biso      1.000     O          -0.48928599999999994          
         O6        1.0000    0.74400   0.07750   0.90140   Biso      1.000     O          -0.5279729999999999           
         O7        1.0000    0.65880   0.11320   0.77970   Biso      1.000     O          -0.677859           
         O8        1.0000    0.30100   0.38670   0.80170   Biso      1.000     O          -0.533475           
         O9        1.0000    0.28300   0.50190   0.93260   Biso      1.000     O          -0.57271  
         O10       1.0000    0.22700   0.32390   0.59560   Biso      1.000     O          -0.5947560000000001           
         O11       1.0000    0.28100   0.52470   0.66010   Biso      1.000     O          -0.589237           
         O12       1.0000    0.57900   0.38540   0.70580   Biso      1.000     O          -0.607375           
         O13       1.0000    0.67800   0.53200   0.82520   Biso      1.000     O          -0.558178           
         O14       1.0000    0.32200   0.46800   0.17480   Biso      1.000     O          -0.558178           
         O15       1.0000    0.65820   0.51850   0.52700   Biso      1.000     O          -0.6089220000000001           
         O16       1.0000    0.58600   0.60470   0.64680   Biso      1.000     O          -0.555525           
         O17       1.0000    0.16400   0.95700   0.82980   Biso      1.000     O          -0.614873           
         O18       1.0000    0.22900   0.93840   0.70090   Biso      1.000     O          -0.48928599999999994          
         O19       1.0000    0.25600   0.92250   0.09860   Biso      1.000     O          -0.5279729999999999           
         O20       1.0000    0.34120   0.88680   0.22030   Biso      1.000     O          -0.67786  
         O21       1.0000    0.42100   0.61460   0.29420   Biso      1.000     O          -0.607375           
         O22       1.0000    0.71700   0.49810   0.06740   Biso      1.000     O          -0.57271  
         O23       1.0000    0.71900   0.47530   0.33990   Biso      1.000     O          -0.589236           
         O24       1.0000    0.69900   0.61330   0.19830   Biso      1.000     O          -0.533474 