
##########################################################################
#               Crystallographic Information Format file
#               Produced by PyCifRW module
#
#  This is a CIF file.  CIF has been adopted by the International
#  Union of Crystallography as the standard for data archiving and
#  transmission.
#
#  For information on this file format, follow the CIF links at
#  http://www.iucr.org
##########################################################################

data_image0

_cell_length_a                          12.9639
_cell_length_b                          13.8034
_cell_length_c                          16.8318
_cell_angle_alpha                       90
_cell_angle_beta                        90
_cell_angle_gamma                       90
_symmetry_space_group_name_H-M          'P 1'
_symmetry_int_tables_number             1
loop_
  _symmetry_equiv_pos_as_xyz
         'x, y, z' 
loop_
  _atom_site_label
  _atom_site_occupancy
  _atom_site_fract_x
  _atom_site_fract_y
  _atom_site_fract_z
  _atom_site_thermal_displace_type
  _atom_site_B_iso_or_equiv
  _atom_site_type_symbol
  _atom_site_charge
         C1        1.0000    0.52890   0.18820   0.09413   Biso      1.000     C          0.157254  
         C2        1.0000    0.52890   0.68820   0.40587   Biso      1.000     C          0.157254  
         C3        1.0000    0.47210   0.72036   0.52007   Biso      1.000     C          0.557582  
         C4        1.0000    0.57730   0.00699   0.27748   Biso      1.000     C          0.474385  
         C5        1.0000    0.52780   0.90972   0.25394   Biso      1.000     C          0.480704  
         C6        1.0000    0.27790   0.58105   0.02303   Biso      1.000     C          0.163882  
         C7        1.0000    0.29790   0.45209   0.08937   Biso      1.000     C          0.546716  
         C8        1.0000    0.47110   0.81180   0.90587   Biso      1.000     C          0.157254  
         C9        1.0000    0.52790   0.77964   0.02007   Biso      1.000     C          0.557582  
         C10       1.0000    0.42270   0.49301   0.77748   Biso      1.000     C          0.474385  
         C11       1.0000    0.70210   0.04791   0.58937   Biso      1.000     C          0.546716  
         C12       1.0000    0.47220   0.59028   0.75394   Biso      1.000     C          0.480704  
         C13       1.0000    0.20210   0.95209   0.91063   Biso      1.000     C          0.546716  
         C14       1.0000    0.02890   0.31180   0.09413   Biso      1.000     C          0.157255  
         C15       1.0000    0.97210   0.27964   0.97993   Biso      1.000     C          0.557582  
         C16       1.0000    0.07730   0.99301   0.22252   Biso      1.000     C          0.474385  
         C17       1.0000    0.02780   0.09028   0.24606   Biso      1.000     C          0.480704  
         C18       1.0000    0.77790   0.41895   0.47697   Biso      1.000     C          0.163882  
         C19       1.0000    0.79790   0.54791   0.41063   Biso      1.000     C          0.546716  
         C20       1.0000    0.97110   0.18820   0.59413   Biso      1.000     C          0.157255  
         C21       1.0000    0.02790   0.22036   0.47993   Biso      1.000     C          0.557582  
         C22       1.0000    0.22210   0.08105   0.97697   Biso      1.000     C          0.163882  
         C23       1.0000    0.92270   0.50699   0.72252   Biso      1.000     C          0.474385  
         C24       1.0000    0.72210   0.91895   0.52303   Biso      1.000     C          0.163882  
         C25       1.0000    0.07730   0.49301   0.27748   Biso      1.000     C          0.474385  
         C26       1.0000    0.27790   0.08105   0.47697   Biso      1.000     C          0.163882  
         C27       1.0000    0.29790   0.95209   0.41063   Biso      1.000     C          0.546716  
         C28       1.0000    0.47110   0.31180   0.59413   Biso      1.000     C          0.157254  
         C29       1.0000    0.52790   0.27964   0.47993   Biso      1.000     C          0.557582  
         C30       1.0000    0.42270   0.99301   0.72252   Biso      1.000     C          0.474385  
         C31       1.0000    0.47220   0.09028   0.74606   Biso      1.000     C          0.480704  
         C32       1.0000    0.72210   0.41895   0.97697   Biso      1.000     C          0.163882  
         C33       1.0000    0.70210   0.54791   0.91063   Biso      1.000     C          0.546716  
         C34       1.0000    0.47210   0.22036   0.97993   Biso      1.000     C          0.557582  
         C35       1.0000    0.02780   0.59028   0.25394   Biso      1.000     C          0.480704  
         C36       1.0000    0.57730   0.50699   0.22252   Biso      1.000     C          0.474385  
         C37       1.0000    0.77790   0.91895   0.02303   Biso      1.000     C          0.163882  
         C38       1.0000    0.79790   0.04791   0.08937   Biso      1.000     C          0.546716  
         C39       1.0000    0.97110   0.68820   0.90587   Biso      1.000     C          0.157254  
         C40       1.0000    0.02790   0.72036   0.02007   Biso      1.000     C          0.557582  
         C41       1.0000    0.92270   0.00699   0.77748   Biso      1.000     C          0.474385  
         C42       1.0000    0.97220   0.90972   0.75394   Biso      1.000     C          0.480704  
         C43       1.0000    0.22210   0.58105   0.52303   Biso      1.000     C          0.163882  
         C44       1.0000    0.20210   0.45209   0.58937   Biso      1.000     C          0.546716  
         C45       1.0000    0.97210   0.77964   0.52007   Biso      1.000     C          0.557582  
         C46       1.0000    0.52780   0.40972   0.24606   Biso      1.000     C          0.480704  
         C47       1.0000    0.97220   0.40972   0.74606   Biso      1.000     C          0.480704  
         C48       1.0000    0.02890   0.81180   0.40587   Biso      1.000     C          0.157255  
         H1        1.0000    0.06100   0.74300   0.13100   Biso      1.000     H          0.343112  
         H2        1.0000    0.43900   0.74300   0.63100   Biso      1.000     H          0.343112  
         H3        1.0000    0.74900   0.85400   0.49660   Biso      1.000     H          0.103474  
         H4        1.0000    0.55000   0.69200   0.35540   Biso      1.000     H          0.099785  
         H5        1.0000    0.33800   0.34000   0.15400   Biso      1.000     H          0.329514  
         H6        1.0000    0.22600   0.38200   0.17600   Biso      1.000     H          0.330195  
         H7        1.0000    0.55800   0.67000   0.08950   Biso      1.000     H          0.346722  
         H8        1.0000    0.25100   0.64600   0.99660   Biso      1.000     H          0.103474  
         H9        1.0000    0.45000   0.80800   0.85540   Biso      1.000     H          0.099785  
         H10       1.0000    0.16200   0.84000   0.84600   Biso      1.000     H          0.329514  
         H11       1.0000    0.44200   0.83000   0.58950   Biso      1.000     H          0.346722  
         H12       1.0000    0.27400   0.88200   0.82400   Biso      1.000     H          0.330195  
         H13       1.0000    0.93900   0.25700   0.86900   Biso      1.000     H          0.343112  
         H14       1.0000    0.24900   0.14600   0.00340   Biso      1.000     H          0.103474  
         H15       1.0000    0.05000   0.30800   0.14460   Biso      1.000     H          0.099785  
         H16       1.0000    0.83800   0.66000   0.34600   Biso      1.000     H          0.329514  
         H17       1.0000    0.72600   0.61800   0.32400   Biso      1.000     H          0.330195  
         H18       1.0000    0.05800   0.33000   0.41050   Biso      1.000     H          0.346722  
         H19       1.0000    0.06100   0.24300   0.36900   Biso      1.000     H          0.343112  
         H20       1.0000    0.75100   0.35400   0.50340   Biso      1.000     H          0.103474  
         H21       1.0000    0.95000   0.19200   0.64460   Biso      1.000     H          0.099785  
         H22       1.0000    0.94200   0.17000   0.91050   Biso      1.000     H          0.346722  
         H23       1.0000    0.77400   0.11800   0.67600   Biso      1.000     H          0.330195  
         H24       1.0000    0.56100   0.75700   0.13100   Biso      1.000     H          0.343112  
         H25       1.0000    0.05000   0.80800   0.35540   Biso      1.000     H          0.099785  
         H26       1.0000    0.05800   0.83000   0.08950   Biso      1.000     H          0.346722  
         H27       1.0000    0.72600   0.11800   0.17600   Biso      1.000     H          0.330195  
         H28       1.0000    0.83800   0.16000   0.15400   Biso      1.000     H          0.329513  
         H29       1.0000    0.66200   0.16000   0.65400   Biso      1.000     H          0.329513  
         H30       1.0000    0.74900   0.35400   0.00340   Biso      1.000     H          0.103474  
         H31       1.0000    0.43900   0.24300   0.86900   Biso      1.000     H          0.343112  
         H32       1.0000    0.44200   0.33000   0.91050   Biso      1.000     H          0.346722  
         H33       1.0000    0.77400   0.61800   0.82400   Biso      1.000     H          0.330195  
         H34       1.0000    0.66200   0.66000   0.84600   Biso      1.000     H          0.329513  
         H35       1.0000    0.45000   0.30800   0.64460   Biso      1.000     H          0.099785  
         H36       1.0000    0.25100   0.14600   0.50340   Biso      1.000     H          0.103474  
         H37       1.0000    0.55000   0.19200   0.14460   Biso      1.000     H          0.099785  
         H38       1.0000    0.55800   0.17000   0.41050   Biso      1.000     H          0.346722  
         H39       1.0000    0.56100   0.25700   0.36900   Biso      1.000     H          0.343112  
         H40       1.0000    0.24900   0.64600   0.49660   Biso      1.000     H          0.103474  
         H41       1.0000    0.93900   0.75700   0.63100   Biso      1.000     H          0.343112  
         H42       1.0000    0.94200   0.67000   0.58950   Biso      1.000     H          0.346722  
         H43       1.0000    0.27400   0.38200   0.67600   Biso      1.000     H          0.330195  
         H44       1.0000    0.75100   0.85400   0.99660   Biso      1.000     H          0.103474  
         H45       1.0000    0.16200   0.34000   0.65400   Biso      1.000     H          0.329513  
         H46       1.0000    0.95000   0.69200   0.85540   Biso      1.000     H          0.099785  
         H47       1.0000    0.33800   0.84000   0.34600   Biso      1.000     H          0.329513  
         H48       1.0000    0.22600   0.88200   0.32400   Biso      1.000     H          0.330195  
         N1        1.0000    0.02496   0.62395   0.01497   Biso      1.000     N          -0.337963           
         N2        1.0000    0.98706   0.60405   0.93948   Biso      1.000     N          -0.204841           
         N3        1.0000    0.99502   0.76341   0.95285   Biso      1.000     N          -0.422417           
         N4        1.0000    0.22100   0.37340   0.63560   Biso      1.000     N          -0.693801           
         N5        1.0000    0.27342   0.52141   0.57287   Biso      1.000     N          -0.418382           
         N6        1.0000    0.11321   0.46835   0.55226   Biso      1.000     N          -0.322588           
         N7        1.0000    0.12709   0.55337   0.50907   Biso      1.000     N          -0.202979           
         N8        1.0000    0.93350   0.73089   0.58336   Biso      1.000     N          -0.747933           
         N9        1.0000    0.01294   0.89595   0.43948   Biso      1.000     N          -0.204847           
         N10       1.0000    0.47504   0.62395   0.51497   Biso      1.000     N          -0.337963           
         N11       1.0000    0.00498   0.73659   0.45285   Biso      1.000     N          -0.422417           
         N12       1.0000    0.72100   0.12660   0.63560   Biso      1.000     N          -0.693801           
         N13       1.0000    0.61321   0.03165   0.55226   Biso      1.000     N          -0.322588           
         N14       1.0000    0.62709   0.94663   0.50907   Biso      1.000     N          -0.202979           
         N15       1.0000    0.43350   0.76911   0.58336   Biso      1.000     N          -0.747933           
         N16       1.0000    0.06650   0.76911   0.08336   Biso      1.000     N          -0.747933           
         N17       1.0000    0.97504   0.87605   0.51497   Biso      1.000     N          -0.337958           
         N18       1.0000    0.77342   0.97859   0.57287   Biso      1.000     N          -0.418383           
         N19       1.0000    0.27900   0.87340   0.36440   Biso      1.000     N          -0.693801           
         N20       1.0000    0.88679   0.03165   0.05226   Biso      1.000     N          -0.322588           
         N21       1.0000    0.51294   0.60405   0.43948   Biso      1.000     N          -0.204841           
         N22       1.0000    0.22658   0.02141   0.42713   Biso      1.000     N          -0.418383           
         N23       1.0000    0.38679   0.96835   0.44774   Biso      1.000     N          -0.322588           
         N24       1.0000    0.37291   0.05337   0.49093   Biso      1.000     N          -0.202978           
         N25       1.0000    0.56650   0.23089   0.41664   Biso      1.000     N          -0.747933           
         N26       1.0000    0.52496   0.37605   0.48503   Biso      1.000     N          -0.337963           
         N27       1.0000    0.48706   0.39595   0.56052   Biso      1.000     N          -0.204841           
         N28       1.0000    0.49502   0.23659   0.54715   Biso      1.000     N          -0.422417           
         N29       1.0000    0.87291   0.94663   0.00907   Biso      1.000     N          -0.202978           
         N30       1.0000    0.72100   0.62660   0.86440   Biso      1.000     N          -0.693801           
         N31       1.0000    0.61321   0.53165   0.94774   Biso      1.000     N          -0.322588           
         N32       1.0000    0.62709   0.44663   0.99093   Biso      1.000     N          -0.202979           
         N33       1.0000    0.43350   0.26911   0.91664   Biso      1.000     N          -0.747933           
         N34       1.0000    0.47504   0.12395   0.98503   Biso      1.000     N          -0.337963           
         N35       1.0000    0.51294   0.10405   0.06052   Biso      1.000     N          -0.204841           
         N36       1.0000    0.50498   0.26341   0.04715   Biso      1.000     N          -0.422418           
         N37       1.0000    0.77900   0.12660   0.13560   Biso      1.000     N          -0.693801           
         N38       1.0000    0.72658   0.97859   0.07287   Biso      1.000     N          -0.418382           
         N39       1.0000    0.77342   0.47859   0.92713   Biso      1.000     N          -0.418383           
         N40       1.0000    0.50498   0.76341   0.45285   Biso      1.000     N          -0.422418           
         N41       1.0000    0.06650   0.26911   0.41664   Biso      1.000     N          -0.747933           
         N42       1.0000    0.22658   0.52141   0.07287   Biso      1.000     N          -0.418382           
         N43       1.0000    0.27900   0.37340   0.13560   Biso      1.000     N          -0.693801           
         N44       1.0000    0.99502   0.26341   0.54715   Biso      1.000     N          -0.422417           
         N45       1.0000    0.98706   0.10405   0.56052   Biso      1.000     N          -0.204847           
         N46       1.0000    0.02496   0.12395   0.48503   Biso      1.000     N          -0.337958           
         N47       1.0000    0.87291   0.44663   0.49093   Biso      1.000     N          -0.202983           
         N48       1.0000    0.88679   0.53165   0.44774   Biso      1.000     N          -0.322584           
         N49       1.0000    0.77900   0.62660   0.36440   Biso      1.000     N          -0.693801           
         N50       1.0000    0.00498   0.23659   0.04715   Biso      1.000     N          -0.422417           
         N51       1.0000    0.01294   0.39595   0.06052   Biso      1.000     N          -0.204846           
         N52       1.0000    0.97504   0.37605   0.98503   Biso      1.000     N          -0.337958           
         N53       1.0000    0.72658   0.47859   0.42713   Biso      1.000     N          -0.418382           
         N54       1.0000    0.12709   0.05337   0.99093   Biso      1.000     N          -0.202983           
         N55       1.0000    0.93350   0.23089   0.91664   Biso      1.000     N          -0.747933           
         N56       1.0000    0.37291   0.55337   0.00907   Biso      1.000     N          -0.202983           
         N57       1.0000    0.56650   0.73089   0.08336   Biso      1.000     N          -0.747933           
         N58       1.0000    0.52496   0.87605   0.01497   Biso      1.000     N          -0.337963           
         N59       1.0000    0.48706   0.89595   0.93948   Biso      1.000     N          -0.204841           
         N60       1.0000    0.38679   0.46835   0.05226   Biso      1.000     N          -0.322584           
         N61       1.0000    0.22100   0.87340   0.86440   Biso      1.000     N          -0.693801           
         N62       1.0000    0.27342   0.02141   0.92713   Biso      1.000     N          -0.418382           
         N63       1.0000    0.11321   0.96835   0.94774   Biso      1.000     N          -0.322584           
         N64       1.0000    0.49502   0.73659   0.95285   Biso      1.000     N          -0.422418           
         O1        1.0000    0.08394   0.47688   0.35041   Biso      1.000     O          -0.512564           
         O2        1.0000    0.41606   0.47688   0.85041   Biso      1.000     O          -0.512564           
         O3        1.0000    0.39425   0.44098   0.72132   Biso      1.000     O          -0.525962           
         O4        1.0000    0.48248   0.60861   0.68153   Biso      1.000     O          -0.486353           
         O5        1.0000    0.49931   0.85518   0.30866   Biso      1.000     O          -0.496892           
         O6        1.0000    0.58394   0.02312   0.35041   Biso      1.000     O          -0.512564           
         O7        1.0000    0.50069   0.64482   0.80866   Biso      1.000     O          -0.496892           
         O8        1.0000    0.51752   0.89139   0.18153   Biso      1.000     O          -0.486353           
         O9        1.0000    0.99931   0.64482   0.30866   Biso      1.000     O          -0.496891           
         O10       1.0000    0.10575   0.44098   0.22132   Biso      1.000     O          -0.525962           
         O11       1.0000    0.41606   0.97688   0.64959   Biso      1.000     O          -0.512564           
         O12       1.0000    0.00069   0.85518   0.80866   Biso      1.000     O          -0.496891           
         O13       1.0000    0.91606   0.02312   0.85041   Biso      1.000     O          -0.512564           
         O14       1.0000    0.60575   0.05902   0.22132   Biso      1.000     O          -0.525962           
         O15       1.0000    0.89425   0.05902   0.72132   Biso      1.000     O          -0.525962           
         O16       1.0000    0.98248   0.89139   0.68153   Biso      1.000     O          -0.486354           
         O17       1.0000    0.49931   0.35518   0.19134   Biso      1.000     O          -0.496891           
         O18       1.0000    0.58394   0.52312   0.14959   Biso      1.000     O          -0.512564           
         O19       1.0000    0.60575   0.55902   0.27868   Biso      1.000     O          -0.525962           
         O20       1.0000    0.51752   0.39139   0.31847   Biso      1.000     O          -0.486353           
         O21       1.0000    0.50069   0.14482   0.69134   Biso      1.000     O          -0.496891           
         O22       1.0000    0.01752   0.60861   0.18153   Biso      1.000     O          -0.486353           
         O23       1.0000    0.01752   0.10861   0.31847   Biso      1.000     O          -0.486354           
         O24       1.0000    0.48248   0.10861   0.81847   Biso      1.000     O          -0.486353           
         O25       1.0000    0.08394   0.97688   0.14959   Biso      1.000     O          -0.512564           
         O26       1.0000    0.99931   0.14482   0.19134   Biso      1.000     O          -0.496891           
         O27       1.0000    0.98248   0.39139   0.81847   Biso      1.000     O          -0.486354           
         O28       1.0000    0.89425   0.55902   0.77868   Biso      1.000     O          -0.525962           
         O29       1.0000    0.91606   0.52312   0.64959   Biso      1.000     O          -0.512564           
         O30       1.0000    0.00069   0.35518   0.69134   Biso      1.000     O          -0.496892           
         O31       1.0000    0.39425   0.94098   0.77868   Biso      1.000     O          -0.525962           
         O32       1.0000    0.10575   0.94098   0.27868   Biso      1.000     O          -0.525961           
         Zn1       1.0000    0.92641   0.47801   0.90385   Biso      1.000     Zn          0.72032   
         Zn2       1.0000    0.02386   0.09259   0.07603   Biso      1.000     Zn          0.71903   
         Zn3       1.0000    0.07359   0.02199   0.40385   Biso      1.000     Zn          0.72032   
         Zn4       1.0000    0.47614   0.59259   0.92397   Biso      1.000     Zn          0.719031  
         Zn5       1.0000    0.42641   0.52199   0.59615   Biso      1.000     Zn          0.72032   
         Zn6       1.0000    0.52386   0.90741   0.42397   Biso      1.000     Zn          0.71903   
         Zn7       1.0000    0.57359   0.97801   0.09615   Biso      1.000     Zn          0.72032   
         Zn8       1.0000    0.92641   0.97801   0.59615   Biso      1.000     Zn          0.720321  
         Zn9       1.0000    0.07359   0.52199   0.09615   Biso      1.000     Zn          0.720321  
         Zn10      1.0000    0.97614   0.90741   0.92397   Biso      1.000     Zn          0.71903   
         Zn11      1.0000    0.52386   0.40741   0.07603   Biso      1.000     Zn          0.71903   
         Zn12      1.0000    0.57359   0.47801   0.40385   Biso      1.000     Zn          0.72032   
         Zn13      1.0000    0.47614   0.09259   0.57603   Biso      1.000     Zn          0.719029  
         Zn14      1.0000    0.42641   0.02199   0.90385   Biso      1.000     Zn          0.72032   
         Zn15      1.0000    0.02386   0.59259   0.42397   Biso      1.000     Zn          0.71903   
         Zn16      1.0000    0.97614   0.40741   0.57603   Biso      1.000     Zn          0.719031 