
##########################################################################
#               Crystallographic Information Format file
#               Produced by PyCifRW module
#
#  This is a CIF file.  CIF has been adopted by the International
#  Union of Crystallography as the standard for data archiving and
#  transmission.
#
#  For information on this file format, follow the CIF links at
#  http://www.iucr.org
##########################################################################

data_image0

_cell_length_a                          10.64
_cell_length_b                          11.239
_cell_length_c                          15.232
_cell_angle_alpha                       99.351
_cell_angle_beta                        99.511
_cell_angle_gamma                       92.482
_symmetry_space_group_name_H-M          'P 1'
_symmetry_int_tables_number             1
loop_
  _symmetry_equiv_pos_as_xyz
         'x, y, z' 
loop_
  _atom_site_label
  _atom_site_occupancy
  _atom_site_fract_x
  _atom_site_fract_y
  _atom_site_fract_z
  _atom_site_thermal_displace_type
  _atom_site_B_iso_or_equiv
  _atom_site_type_symbol
  _atom_site_charge
         C1        1.0000    0.30170   0.62090   0.25700   Biso      1.000     C          -0.209929           
         C2        1.0000    0.65180   0.16290   0.70590   Biso      1.000     C          0.299173  
         C3        1.0000    0.34030   0.18280   0.81140   Biso      1.000     C          -0.219248           
         C4        1.0000    0.56750   0.72480   0.68520   Biso      1.000     C          0.680365  
         C5        1.0000    0.65470   0.25980   0.95420   Biso      1.000     C          0.613656  
         C6        1.0000    0.32620   0.09980   0.72950   Biso      1.000     C          -0.149317           
         C7        1.0000    0.32950   0.73550   0.14040   Biso      1.000     C          -0.135151           
         C8        1.0000    0.32380   0.96920   0.73270   Biso      1.000     C          0.701883  
         C9        1.0000    0.88160   0.26950   0.22140   Biso      1.000     C          0.673886  
         C10       1.0000    0.02370   0.27250   0.24400   Biso      1.000     C          -0.142819           
         C11       1.0000    0.35770   0.48590   0.73090   Biso      1.000     C          0.693452  
         C12       1.0000    0.30440   0.62480   0.16700   Biso      1.000     C          0.307366  
         C13       1.0000    0.32490   0.72640   0.32160   Biso      1.000     C          -0.134503           
         C14       1.0000    0.67620   0.03080   0.26730   Biso      1.000     C          0.701882  
         C15       1.0000    0.67380   0.90020   0.27050   Biso      1.000     C          -0.149317           
         C16       1.0000    0.65970   0.81720   0.18860   Biso      1.000     C          -0.219247           
         C17       1.0000    0.64800   0.69450   0.18650   Biso      1.000     C          0.311175  
         C18       1.0000    0.67970   0.85450   0.35080   Biso      1.000     C          0.316018  
         C19       1.0000    0.34820   0.83710   0.29410   Biso      1.000     C          0.299174  
         C20       1.0000    0.66770   0.73000   0.34850   Biso      1.000     C          -0.214056           
         C21       1.0000    0.34530   0.74020   0.04580   Biso      1.000     C          0.613656  
         C22       1.0000    0.65250   0.64740   0.26830   Biso      1.000     C          -0.148651           
         C23       1.0000    0.97630   0.72750   0.75600   Biso      1.000     C          -0.142818           
         C24       1.0000    0.35010   0.84070   0.20470   Biso      1.000     C          -0.206874           
         C25       1.0000    0.67050   0.26450   0.85960   Biso      1.000     C          -0.135151           
         C26       1.0000    0.64990   0.15930   0.79530   Biso      1.000     C          -0.206874           
         C27       1.0000    0.70990   0.72680   0.70860   Biso      1.000     C          -0.135068           
         C28       1.0000    0.32190   0.71880   0.41780   Biso      1.000     C          0.605005  
         C29       1.0000    0.34750   0.35260   0.73170   Biso      1.000     C          -0.148651           
         C30       1.0000    0.33230   0.27000   0.65150   Biso      1.000     C          -0.214057           
         C31       1.0000    0.91400   0.69190   0.66670   Biso      1.000     C          -0.229005           
         C32       1.0000    0.64230   0.51410   0.26910   Biso      1.000     C          0.693452  
         C33       1.0000    0.32030   0.14550   0.64920   Biso      1.000     C          0.316019  
         C34       1.0000    0.43250   0.27520   0.31480   Biso      1.000     C          0.680365  
         C35       1.0000    0.69560   0.37520   0.83300   Biso      1.000     C          0.307364  
         C36       1.0000    0.29010   0.27320   0.29140   Biso      1.000     C          -0.135068           
         C37       1.0000    0.22910   0.23980   0.20220   Biso      1.000     C          -0.204075           
         C38       1.0000    0.35200   0.30550   0.81350   Biso      1.000     C          0.311176  
         C39       1.0000    0.09770   0.23930   0.17730   Biso      1.000     C          0.3248    
         C40       1.0000    0.69830   0.37910   0.74300   Biso      1.000     C          -0.209927           
         C41       1.0000    0.67510   0.27360   0.67840   Biso      1.000     C          -0.134503           
         C42       1.0000    0.78520   0.69290   0.64240   Biso      1.000     C          0.332638  
         C43       1.0000    0.67810   0.28120   0.58220   Biso      1.000     C          0.605005  
         C44       1.0000    0.11840   0.73050   0.77860   Biso      1.000     C          0.673886  
         C45       1.0000    0.90230   0.76070   0.82270   Biso      1.000     C          0.324798  
         C46       1.0000    0.08600   0.30810   0.33330   Biso      1.000     C          -0.229005           
         C47       1.0000    0.21480   0.30710   0.35760   Biso      1.000     C          0.332638  
         C48       1.0000    0.77090   0.76020   0.79780   Biso      1.000     C          -0.204074           
         H1        1.0000    0.36550   0.91450   0.18680   Biso      1.000     H          0.144953  
         H2        1.0000    0.72200   0.78290   0.84230   Biso      1.000     H          0.127724  
         H3        1.0000    0.37620   0.93290   0.40550   Biso      1.000     H          0.400459  
         H4        1.0000    0.28420   0.54740   0.27460   Biso      1.000     H          0.145548  
         H5        1.0000    0.65490   0.66400   0.54680   Biso      1.000     H          0.407296  
         H6        1.0000    0.26370   0.53370   0.05460   Biso      1.000     H          0.410548  
         H7        1.0000    0.96230   0.66660   0.62240   Biso      1.000     H          0.124463  
         H8        1.0000    0.96730   0.19290   0.08320   Biso      1.000     H          0.406621  
         H9        1.0000    0.63550   0.54900   0.11280   Biso      1.000     H          0.405499  
         H10       1.0000    0.36450   0.45100   0.88720   Biso      1.000     H          0.405499  
         H11       1.0000    0.32990   0.29890   0.59750   Biso      1.000     H          0.142696  
         H12       1.0000    0.34890   0.01520   0.57100   Biso      1.000     H          0.408586  
         H13       1.0000    0.27800   0.21710   0.15770   Biso      1.000     H          0.127724  
         H14       1.0000    0.03770   0.33340   0.37760   Biso      1.000     H          0.124463  
         H15       1.0000    0.34160   0.15360   0.86520   Biso      1.000     H          0.144575  
         H16       1.0000    0.34510   0.33600   0.45320   Biso      1.000     H          0.407296  
         H17       1.0000    0.71580   0.45260   0.72540   Biso      1.000     H          0.145548  
         H18       1.0000    0.62380   0.06710   0.59450   Biso      1.000     H          0.400459  
         H19       1.0000    0.63450   0.08550   0.81320   Biso      1.000     H          0.144953  
         H20       1.0000    0.03270   0.80710   0.91680   Biso      1.000     H          0.406621  
         H21       1.0000    0.65840   0.84640   0.13480   Biso      1.000     H          0.144575  
         H22       1.0000    0.65110   0.98480   0.42900   Biso      1.000     H          0.408586  
         H23       1.0000    0.67010   0.70110   0.40250   Biso      1.000     H          0.142696  
         H24       1.0000    0.73630   0.46630   0.94540   Biso      1.000     H          0.410548  
         O1        1.0000    0.34410   0.81340   0.47690   Biso      1.000     O          -0.634188           
         O2        1.0000    0.17050   0.76160   0.86080   Biso      1.000     O          -0.611332           
         O3        1.0000    0.95500   0.79540   0.91190   Biso      1.000     O          -0.496477           
         O4        1.0000    0.36920   0.94580   0.35350   Biso      1.000     O          -0.508703           
         O5        1.0000    0.30710   0.07430   0.56700   Biso      1.000     O          -0.510512           
         O6        1.0000    0.36470   0.38060   0.89510   Biso      1.000     O          -0.509818           
         O7        1.0000    0.27980   0.51850   0.10590   Biso      1.000     O          -0.519863           
         O8        1.0000    0.61960   0.16290   0.97700   Biso      1.000     O          -0.680707           
         O9        1.0000    0.38040   0.83710   0.02300   Biso      1.000     O          -0.680707           
         O10       1.0000    0.50050   0.74710   0.74540   Biso      1.000     O          -0.765828           
         O11       1.0000    0.63200   0.44530   0.19300   Biso      1.000     O          -0.691402           
         O12       1.0000    0.64420   0.47930   0.34210   Biso      1.000     O          -0.656126           
         O13       1.0000    0.70370   0.38220   0.56020   Biso      1.000     O          -0.670544           
         O14       1.0000    0.69070   0.10280   0.34240   Biso      1.000     O          -0.705511           
         O15       1.0000    0.66230   0.06530   0.19190   Biso      1.000     O          -0.677215           
         O16       1.0000    0.81620   0.29660   0.28160   Biso      1.000     O          -0.764375           
         O17       1.0000    0.48370   0.30210   0.39780   Biso      1.000     O          -0.607819           
         O18       1.0000    0.49950   0.25290   0.25460   Biso      1.000     O          -0.765828           
         O19       1.0000    0.26760   0.34060   0.44690   Biso      1.000     O          -0.507646           
         O20       1.0000    0.63080   0.05420   0.64650   Biso      1.000     O          -0.508703           
         O21       1.0000    0.72020   0.48150   0.89410   Biso      1.000     O          -0.519863           
         O22       1.0000    0.65590   0.18660   0.52310   Biso      1.000     O          -0.634188           
         O23       1.0000    0.73240   0.65940   0.55310   Biso      1.000     O          -0.507646           
         O24       1.0000    0.04500   0.20460   0.08810   Biso      1.000     O          -0.496477           
         O25       1.0000    0.69290   0.92570   0.43300   Biso      1.000     O          -0.510512           
         O26       1.0000    0.63530   0.61940   0.10490   Biso      1.000     O          -0.509818           
         O27       1.0000    0.67500   0.35670   0.01260   Biso      1.000     O          -0.634757           
         O28       1.0000    0.32500   0.64330   0.98740   Biso      1.000     O          -0.634757           
         O29       1.0000    0.36800   0.55470   0.80700   Biso      1.000     O          -0.691402           
         O30       1.0000    0.35580   0.52070   0.65790   Biso      1.000     O          -0.656126           
         O31       1.0000    0.29630   0.61780   0.43980   Biso      1.000     O          -0.670544           
         O32       1.0000    0.30930   0.89720   0.65760   Biso      1.000     O          -0.705511           
         O33       1.0000    0.33770   0.93470   0.80810   Biso      1.000     O          -0.677215           
         O34       1.0000    0.18380   0.70340   0.71840   Biso      1.000     O          -0.764376           
         O35       1.0000    0.51630   0.69790   0.60220   Biso      1.000     O          -0.607819           
         O36       1.0000    0.82950   0.23840   0.13920   Biso      1.000     O          -0.611332           
         Tb1       1.0000    0.39703   0.76232   0.86819   Biso      1.000     Tb          2.082234  
         Tb2       1.0000    0.29005   0.69310   0.59436   Biso      1.000     Tb          2.070902  
         Tb3       1.0000    0.70995   0.30690   0.40564   Biso      1.000     Tb          2.070902  
         Tb4       1.0000    0.60297   0.23768   0.13181   Biso      1.000     Tb          2.082234 