
##########################################################################
#               Crystallographic Information Format file
#               Produced by PyCifRW module
#
#  This is a CIF file.  CIF has been adopted by the International
#  Union of Crystallography as the standard for data archiving and
#  transmission.
#
#  For information on this file format, follow the CIF links at
#  http://www.iucr.org
##########################################################################

data_image0

_cell_length_a                          22.4261
_cell_length_b                          22.4261
_cell_length_c                          22.4261
_cell_angle_alpha                       92.8245
_cell_angle_beta                        118.383
_cell_angle_gamma                       118.383
_symmetry_space_group_name_H-M          'P 1'
_symmetry_int_tables_number             1
loop_
  _symmetry_equiv_pos_as_xyz
         'x, y, z' 
loop_
  _atom_site_label
  _atom_site_occupancy
  _atom_site_fract_x
  _atom_site_fract_y
  _atom_site_fract_z
  _atom_site_thermal_displace_type
  _atom_site_B_iso_or_equiv
  _atom_site_type_symbol
  _atom_site_charge
         C1        1.0000    0.61360   0.34100   0.05800   Biso      1.000     C          0.151763  
         C2        1.0000    0.23460   0.74760   0.29340   Biso      1.000     C          -0.208585           
         C3        1.0000    0.18030   0.69530   0.22380   Biso      1.000     C          -0.101598           
         C4        1.0000    0.16770   0.63050   0.19660   Biso      1.000     C          -0.034956           
         C5        1.0000    0.10450   0.59060   0.12010   Biso      1.000     C          0.598367  
         C6        1.0000    0.22020   0.60260   0.97000   Biso      1.000     C          -0.105331           
         C7        1.0000    0.27780   0.61370   0.95590   Biso      1.000     C          -0.018147           
         C8        1.0000    0.28300   0.55560   0.94200   Biso      1.000     C          0.151773  
         C9        1.0000    0.23460   0.48700   0.94120   Biso      1.000     C          -0.208534           
         C10       1.0000    0.18030   0.48500   0.95650   Biso      1.000     C          -0.100573           
         C11       1.0000    0.16770   0.53720   0.97110   Biso      1.000     C          -0.038253           
         C12       1.0000    0.10450   0.51390   0.98440   Biso      1.000     C          0.599286  
         C13       1.0000    0.77980   0.74980   0.38240   Biso      1.000     C          -0.106365           
         C14       1.0000    0.72220   0.67810   0.33590   Biso      1.000     C          -0.018178           
         C15       1.0000    0.71700   0.65900   0.27260   Biso      1.000     C          0.151748  
         C16       1.0000    0.28300   0.72740   0.34100   Biso      1.000     C          0.151748  
         C17       1.0000    0.76540   0.70660   0.25240   Biso      1.000     C          -0.208586           
         C18       1.0000    0.83230   0.80340   0.36950   Biso      1.000     C          -0.034957           
         C19       1.0000    0.89550   0.87990   0.40940   Biso      1.000     C          0.598368  
         C20       1.0000    0.63260   0.38240   0.60260   Biso      1.000     C          -0.105311           
         C21       1.0000    0.65780   0.33590   0.61370   Biso      1.000     C          -0.01809  
         C22       1.0000    0.61360   0.27260   0.55560   Biso      1.000     C          0.151731  
         C23       1.0000    0.54580   0.25240   0.48700   Biso      1.000     C          -0.208554           
         C24       1.0000    0.52850   0.30470   0.48500   Biso      1.000     C          -0.100583           
         C25       1.0000    0.56610   0.36950   0.53720   Biso      1.000     C          -0.038257           
         C26       1.0000    0.52950   0.40940   0.51390   Biso      1.000     C          0.599242  
         C27       1.0000    0.36740   0.97000   0.74980   Biso      1.000     C          -0.105293           
         C28       1.0000    0.34220   0.95590   0.67810   Biso      1.000     C          -0.01814  
         C29       1.0000    0.38640   0.94200   0.65900   Biso      1.000     C          0.151763  
         C30       1.0000    0.45420   0.94120   0.70660   Biso      1.000     C          -0.20857  
         C31       1.0000    0.47150   0.95650   0.77620   Biso      1.000     C          -0.100571           
         C32       1.0000    0.81970   0.77620   0.30470   Biso      1.000     C          -0.101598           
         C33       1.0000    0.43390   0.97110   0.80340   Biso      1.000     C          -0.038296           
         C34       1.0000    0.27780   0.66410   0.32190   Biso      1.000     C          -0.018178           
         C35       1.0000    0.89550   0.01560   0.48610   Biso      1.000     C          0.599286  
         C36       1.0000    0.47150   0.69530   0.51500   Biso      1.000     C          -0.100583           
         C37       1.0000    0.43390   0.63050   0.46280   Biso      1.000     C          -0.038257           
         C38       1.0000    0.47050   0.59060   0.48610   Biso      1.000     C          0.599242  
         C39       1.0000    0.63260   0.03000   0.25020   Biso      1.000     C          -0.105294           
         C40       1.0000    0.65780   0.04410   0.32190   Biso      1.000     C          -0.01814  
         C41       1.0000    0.61360   0.05800   0.34100   Biso      1.000     C          0.151763  
         C42       1.0000    0.54580   0.05880   0.29340   Biso      1.000     C          -0.208571           
         C43       1.0000    0.52850   0.04350   0.22380   Biso      1.000     C          -0.100572           
         C44       1.0000    0.56610   0.02890   0.19660   Biso      1.000     C          -0.038296           
         C45       1.0000    0.52950   0.01560   0.12010   Biso      1.000     C          0.599304  
         C46       1.0000    0.63260   0.25020   0.03000   Biso      1.000     C          -0.105294           
         C47       1.0000    0.65780   0.32190   0.04410   Biso      1.000     C          -0.01814  
         C48       1.0000    0.34220   0.66410   0.38630   Biso      1.000     C          -0.01809  
         C49       1.0000    0.54580   0.29340   0.05880   Biso      1.000     C          -0.20857  
         C50       1.0000    0.22020   0.61760   0.25020   Biso      1.000     C          -0.106365           
         C51       1.0000    0.52850   0.22380   0.04350   Biso      1.000     C          -0.100571           
         C52       1.0000    0.52950   0.12010   0.01560   Biso      1.000     C          0.599304  
         C53       1.0000    0.36740   0.39740   0.61760   Biso      1.000     C          -0.105311           
         C54       1.0000    0.34220   0.38630   0.66410   Biso      1.000     C          -0.01809  
         C55       1.0000    0.38640   0.44440   0.72740   Biso      1.000     C          0.151731  
         C56       1.0000    0.45420   0.51300   0.74760   Biso      1.000     C          -0.208554           
         C57       1.0000    0.47150   0.51500   0.69530   Biso      1.000     C          -0.100583           
         C58       1.0000    0.43390   0.46280   0.63050   Biso      1.000     C          -0.038257           
         C59       1.0000    0.47050   0.48610   0.59060   Biso      1.000     C          0.599242  
         C60       1.0000    0.77980   0.03000   0.39740   Biso      1.000     C          -0.105331           
         C61       1.0000    0.72220   0.04410   0.38630   Biso      1.000     C          -0.018147           
         C62       1.0000    0.71700   0.05800   0.44440   Biso      1.000     C          0.151773  
         C63       1.0000    0.76540   0.05880   0.51300   Biso      1.000     C          -0.208534           
         C64       1.0000    0.81970   0.04350   0.51500   Biso      1.000     C          -0.100573           
         C65       1.0000    0.83230   0.02890   0.46280   Biso      1.000     C          -0.038254           
         C66       1.0000    0.56610   0.19660   0.02890   Biso      1.000     C          -0.038296           
         C67       1.0000    0.47050   0.98440   0.87990   Biso      1.000     C          0.599304  
         C68       1.0000    0.36740   0.61760   0.39740   Biso      1.000     C          -0.105312           
         C69       1.0000    0.10450   0.12010   0.59060   Biso      1.000     C          0.598368  
         C70       1.0000    0.43390   0.80340   0.97110   Biso      1.000     C          -0.038297           
         C71       1.0000    0.47150   0.77620   0.95650   Biso      1.000     C          -0.10057  
         C72       1.0000    0.45420   0.70660   0.94120   Biso      1.000     C          -0.20857  
         C73       1.0000    0.38640   0.65900   0.94200   Biso      1.000     C          0.151763  
         C74       1.0000    0.34220   0.67810   0.95590   Biso      1.000     C          -0.01814  
         C75       1.0000    0.36740   0.74980   0.97000   Biso      1.000     C          -0.105293           
         C76       1.0000    0.37740   0.91611   0.53871   Biso      1.000     C          0.221354  
         C77       1.0000    0.43800   0.97683   0.53883   Biso      1.000     C          -0.227702           
         C78       1.0000    0.62260   0.16131   0.53871   Biso      1.000     C          0.221704  
         C79       1.0000    0.56200   0.10083   0.53883   Biso      1.000     C          -0.227811           
         C80       1.0000    0.62260   0.53871   0.16131   Biso      1.000     C          0.221705  
         C81       1.0000    0.56200   0.53883   0.10083   Biso      1.000     C          -0.227811           
         C82       1.0000    0.37740   0.53871   0.91611   Biso      1.000     C          0.221354  
         C83       1.0000    0.43800   0.53883   0.97683   Biso      1.000     C          -0.227703           
         C84       1.0000    0.47050   0.87990   0.98440   Biso      1.000     C          0.599304  
         C85       1.0000    0.37740   0.83869   0.46129   Biso      1.000     C          0.221704  
         C86       1.0000    0.62260   0.08389   0.46129   Biso      1.000     C          0.221354  
         C87       1.0000    0.56200   0.02317   0.46117   Biso      1.000     C          -0.227703           
         C88       1.0000    0.37740   0.46129   0.83869   Biso      1.000     C          0.221704  
         C89       1.0000    0.43800   0.46117   0.89917   Biso      1.000     C          -0.227811           
         C90       1.0000    0.62260   0.46129   0.08389   Biso      1.000     C          0.221354  
         C91       1.0000    0.56200   0.46117   0.02317   Biso      1.000     C          -0.227703           
         C92       1.0000    0.34660   0.84660   0.50000   Biso      1.000     C          -0.252828           
         C93       1.0000    0.46860   0.96860   0.50000   Biso      1.000     C          0.101684  
         C94       1.0000    0.65340   0.15340   0.50000   Biso      1.000     C          -0.252828           
         C95       1.0000    0.53140   0.03140   0.50000   Biso      1.000     C          0.101684  
         C96       1.0000    0.65340   0.50000   0.15340   Biso      1.000     C          -0.252828           
         C97       1.0000    0.53140   0.50000   0.03140   Biso      1.000     C          0.101684  
         C98       1.0000    0.34660   0.50000   0.84660   Biso      1.000     C          -0.252827           
         C99       1.0000    0.46860   0.50000   0.96860   Biso      1.000     C          0.101684  
         C100      1.0000    0.43800   0.89917   0.46117   Biso      1.000     C          -0.22781  
         C101      1.0000    0.63260   0.60260   0.38240   Biso      1.000     C          -0.105311           
         C102      1.0000    0.65780   0.61370   0.33590   Biso      1.000     C          -0.01809  
         C103      1.0000    0.61360   0.55560   0.27260   Biso      1.000     C          0.151731  
         C104      1.0000    0.16770   0.19660   0.63050   Biso      1.000     C          -0.034957           
         C105      1.0000    0.18030   0.22380   0.69530   Biso      1.000     C          -0.101598           
         C106      1.0000    0.23460   0.29340   0.74760   Biso      1.000     C          -0.208586           
         C107      1.0000    0.28300   0.34100   0.72740   Biso      1.000     C          0.151748  
         C108      1.0000    0.27780   0.32190   0.66410   Biso      1.000     C          -0.018179           
         C109      1.0000    0.22020   0.25020   0.61760   Biso      1.000     C          -0.106364           
         C110      1.0000    0.89550   0.48610   0.01560   Biso      1.000     C          0.599286  
         C111      1.0000    0.83230   0.46280   0.02890   Biso      1.000     C          -0.038254           
         C112      1.0000    0.81970   0.51500   0.04350   Biso      1.000     C          -0.100572           
         C113      1.0000    0.76540   0.51300   0.05880   Biso      1.000     C          -0.208535           
         C114      1.0000    0.71700   0.44440   0.05800   Biso      1.000     C          0.151774  
         C115      1.0000    0.72220   0.38630   0.04410   Biso      1.000     C          -0.018147           
         C116      1.0000    0.77980   0.39740   0.03000   Biso      1.000     C          -0.105331           
         C117      1.0000    0.89550   0.40940   0.87990   Biso      1.000     C          0.598367  
         C118      1.0000    0.83230   0.36950   0.80340   Biso      1.000     C          -0.034957           
         C119      1.0000    0.81970   0.30470   0.77620   Biso      1.000     C          -0.101598           
         C120      1.0000    0.76540   0.25240   0.70660   Biso      1.000     C          -0.208586           
         C121      1.0000    0.54580   0.48700   0.25240   Biso      1.000     C          -0.208554           
         C122      1.0000    0.52850   0.48500   0.30470   Biso      1.000     C          -0.100583           
         C123      1.0000    0.56610   0.53720   0.36950   Biso      1.000     C          -0.038258           
         C124      1.0000    0.52950   0.51390   0.40940   Biso      1.000     C          0.599242  
         C125      1.0000    0.22020   0.97000   0.60260   Biso      1.000     C          -0.105331           
         C126      1.0000    0.27780   0.95590   0.61370   Biso      1.000     C          -0.018147           
         C127      1.0000    0.45420   0.74760   0.51300   Biso      1.000     C          -0.208554           
         C128      1.0000    0.28300   0.94200   0.55560   Biso      1.000     C          0.151773  
         C129      1.0000    0.18030   0.95650   0.48500   Biso      1.000     C          -0.100573           
         C130      1.0000    0.16770   0.97110   0.53720   Biso      1.000     C          -0.038253           
         C131      1.0000    0.10450   0.98440   0.51390   Biso      1.000     C          0.599286  
         C132      1.0000    0.77980   0.38240   0.74980   Biso      1.000     C          -0.106365           
         C133      1.0000    0.72220   0.33590   0.67810   Biso      1.000     C          -0.018179           
         C134      1.0000    0.71700   0.27260   0.65900   Biso      1.000     C          0.151748  
         C135      1.0000    0.23460   0.94120   0.48700   Biso      1.000     C          -0.208534           
         C136      1.0000    0.38640   0.72740   0.44440   Biso      1.000     C          0.151731  
         Cu1       1.0000    0.42580   0.97992   0.97992   Biso      1.000     Cu          0.81695   
         Cu2       1.0000    0.57420   0.55412   0.55412   Biso      1.000     Cu          0.816963  
         Cu3       1.0000    0.00000   0.97992   0.55412   Biso      1.000     Cu          0.816992  
         Cu4       1.0000    0.00000   0.55412   0.97992   Biso      1.000     Cu          0.816984  
         Cu5       1.0000    0.00000   0.44588   0.02008   Biso      1.000     Cu          0.816986  
         Cu6       1.0000    0.00000   0.02008   0.44588   Biso      1.000     Cu          0.816987  
         Cu7       1.0000    0.42580   0.44588   0.44588   Biso      1.000     Cu          0.81696   
         Cu8       1.0000    0.57420   0.02008   0.02008   Biso      1.000     Cu          0.81695   
         H1        1.0000    0.30530   0.50000   0.80530   Biso      1.000     H          0.159586  
         H2        1.0000    0.85460   0.04320   0.56060   Biso      1.000     H          0.097417  
         H3        1.0000    0.76180   0.06820   0.55260   Biso      1.000     H          0.139764  
         H4        1.0000    0.78370   0.02070   0.35800   Biso      1.000     H          0.120592  
         H5        1.0000    0.51740   0.56060   0.70600   Biso      1.000     H          0.097428  
         H6        1.0000    0.51560   0.30640   0.06820   Biso      1.000     H          0.139816  
         H7        1.0000    0.33730   0.35800   0.57430   Biso      1.000     H          0.120584  
         H8        1.0000    0.48260   0.18860   0.04320   Biso      1.000     H          0.097427  
         H9        1.0000    0.21630   0.57430   0.23700   Biso      1.000     H          0.120573  
         H10       1.0000    0.66270   0.23700   0.02070   Biso      1.000     H          0.120594  
         H11       1.0000    0.48440   0.55260   0.79080   Biso      1.000     H          0.139812  
         H12       1.0000    0.23820   0.79080   0.30640   Biso      1.000     H          0.139811  
         H13       1.0000    0.14540   0.43940   0.95680   Biso      1.000     H          0.097417  
         H14       1.0000    0.21630   0.64200   0.97930   Biso      1.000     H          0.120592  
         H15       1.0000    0.23820   0.44740   0.93180   Biso      1.000     H          0.139764  
         H16       1.0000    0.48260   0.04320   0.18860   Biso      1.000     H          0.097428  
         H17       1.0000    0.78370   0.76300   0.42570   Biso      1.000     H          0.120574  
         H18       1.0000    0.76180   0.69360   0.20920   Biso      1.000     H          0.139812  
         H19       1.0000    0.66270   0.42570   0.64200   Biso      1.000     H          0.120584  
         H20       1.0000    0.51560   0.20920   0.44740   Biso      1.000     H          0.139811  
         H21       1.0000    0.48260   0.29400   0.43940   Biso      1.000     H          0.097428  
         H22       1.0000    0.33730   0.97930   0.76300   Biso      1.000     H          0.120593  
         H23       1.0000    0.48440   0.93180   0.69360   Biso      1.000     H          0.139816  
         H24       1.0000    0.51740   0.95680   0.81140   Biso      1.000     H          0.097426  
         H25       1.0000    0.14540   0.70600   0.18860   Biso      1.000     H          0.097387  
         H26       1.0000    0.51560   0.06820   0.30640   Biso      1.000     H          0.139817  
         H27       1.0000    0.85460   0.81140   0.29400   Biso      1.000     H          0.097388  
         H28       1.0000    0.51740   0.70600   0.56060   Biso      1.000     H          0.097428  
         H29       1.0000    0.69470   0.50000   0.19470   Biso      1.000     H          0.159587  
         H30       1.0000    0.69470   0.19470   0.50000   Biso      1.000     H          0.159586  
         H31       1.0000    0.30530   0.80530   0.50000   Biso      1.000     H          0.159586  
         H32       1.0000    0.54140   0.43450   0.97590   Biso      1.000     H          0.139326  
         H33       1.0000    0.45860   0.43450   0.89310   Biso      1.000     H          0.139327  
         H34       1.0000    0.54140   0.97590   0.43450   Biso      1.000     H          0.139325  
         H35       1.0000    0.45860   0.89310   0.43450   Biso      1.000     H          0.139327  
         H36       1.0000    0.45860   0.56550   0.02410   Biso      1.000     H          0.139326  
         H37       1.0000    0.54140   0.56550   0.10690   Biso      1.000     H          0.139327  
         H38       1.0000    0.54140   0.10690   0.56550   Biso      1.000     H          0.139327  
         H39       1.0000    0.45860   0.02410   0.56550   Biso      1.000     H          0.139326  
         H40       1.0000    0.33730   0.76300   0.97930   Biso      1.000     H          0.120593  
         H41       1.0000    0.48440   0.69360   0.93180   Biso      1.000     H          0.139816  
         H42       1.0000    0.66270   0.64200   0.42570   Biso      1.000     H          0.120585  
         H43       1.0000    0.51560   0.44740   0.20920   Biso      1.000     H          0.139811  
         H44       1.0000    0.51740   0.81140   0.95680   Biso      1.000     H          0.097426  
         H45       1.0000    0.21630   0.97930   0.64200   Biso      1.000     H          0.120593  
         H46       1.0000    0.48440   0.79080   0.55260   Biso      1.000     H          0.139812  
         H47       1.0000    0.33730   0.57430   0.35800   Biso      1.000     H          0.120585  
         H48       1.0000    0.14540   0.18860   0.70600   Biso      1.000     H          0.097387  
         H49       1.0000    0.23820   0.30640   0.79080   Biso      1.000     H          0.139812  
         H50       1.0000    0.21630   0.23700   0.57430   Biso      1.000     H          0.120572  
         H51       1.0000    0.85460   0.56060   0.04320   Biso      1.000     H          0.097417  
         H52       1.0000    0.48260   0.43940   0.29400   Biso      1.000     H          0.097428  
         H53       1.0000    0.76180   0.55260   0.06820   Biso      1.000     H          0.139764  
         H54       1.0000    0.85460   0.29400   0.81140   Biso      1.000     H          0.097388  
         H55       1.0000    0.76180   0.20920   0.69360   Biso      1.000     H          0.139812  
         H56       1.0000    0.78370   0.42570   0.76300   Biso      1.000     H          0.120573  
         H57       1.0000    0.14540   0.95680   0.43940   Biso      1.000     H          0.097417  
         H58       1.0000    0.23820   0.93180   0.44740   Biso      1.000     H          0.139764  
         H59       1.0000    0.78370   0.35800   0.02070   Biso      1.000     H          0.120592  
         H60       1.0000    0.66270   0.02070   0.23700   Biso      1.000     H          0.120594  
         N1        1.0000    0.65290   0.41780   0.07070   Biso      1.000     N          -0.18262  
         N2        1.0000    0.34710   0.76490   0.41780   Biso      1.000     N          -0.182723           
         N3        1.0000    0.34710   0.41780   0.76490   Biso      1.000     N          -0.182724           
         N4        1.0000    0.65290   0.07070   0.41780   Biso      1.000     N          -0.182621           
         N5        1.0000    0.34710   0.58220   0.92930   Biso      1.000     N          -0.18262  
         N6        1.0000    0.65290   0.23510   0.58220   Biso      1.000     N          -0.182723           
         N7        1.0000    0.65290   0.58220   0.23510   Biso      1.000     N          -0.182724           
         N8        1.0000    0.34710   0.92930   0.58220   Biso      1.000     N          -0.182621           
         O1        1.0000    0.46350   0.46590   0.38500   Biso      1.000     O          -0.441221           
         O2        1.0000    0.59290   0.56430   0.47880   Biso      1.000     O          -0.582558           
         O3        1.0000    0.08090   0.00240   0.46590   Biso      1.000     O          -0.441227           
         O4        1.0000    0.08550   0.97140   0.56430   Biso      1.000     O          -0.582584           
         O5        1.0000    0.91910   0.38500   0.92150   Biso      1.000     O          -0.441285           
         O6        1.0000    0.91450   0.47880   0.88590   Biso      1.000     O          -0.582776           
         O7        1.0000    0.46350   0.07850   0.99760   Biso      1.000     O          -0.44123  
         O8        1.0000    0.91450   0.43570   0.02860   Biso      1.000     O          -0.582582           
         O9        1.0000    0.08090   0.07850   0.61500   Biso      1.000     O          -0.441287           
         O10       1.0000    0.08550   0.11410   0.52120   Biso      1.000     O          -0.582776           
         O11       1.0000    0.53650   0.61500   0.53410   Biso      1.000     O          -0.441221           
         O12       1.0000    0.40710   0.52120   0.43570   Biso      1.000     O          -0.582557           
         O13       1.0000    0.46350   0.99760   0.07850   Biso      1.000     O          -0.44123  
         O14       1.0000    0.59290   0.02860   0.11410   Biso      1.000     O          -0.58259  
         O15       1.0000    0.91910   0.53410   0.99760   Biso      1.000     O          -0.441227           
         O16       1.0000    0.59290   0.11410   0.02860   Biso      1.000     O          -0.58259  
         O17       1.0000    0.40710   0.43570   0.52120   Biso      1.000     O          -0.582558           
         O18       1.0000    0.91910   0.99760   0.53410   Biso      1.000     O          -0.441228           
         O19       1.0000    0.91450   0.02860   0.43570   Biso      1.000     O          -0.582582           
         O20       1.0000    0.08090   0.61500   0.07850   Biso      1.000     O          -0.441285           
         O21       1.0000    0.08550   0.52120   0.11410   Biso      1.000     O          -0.582776           
         O22       1.0000    0.08090   0.46590   0.00240   Biso      1.000     O          -0.441227           
         O23       1.0000    0.08550   0.56430   0.97140   Biso      1.000     O          -0.582582           
         O24       1.0000    0.91910   0.92150   0.38500   Biso      1.000     O          -0.441285           
         O25       1.0000    0.91450   0.88590   0.47880   Biso      1.000     O          -0.582778           
         O26       1.0000    0.46350   0.38500   0.46590   Biso      1.000     O          -0.441221           
         O27       1.0000    0.59290   0.47880   0.56430   Biso      1.000     O          -0.582558           
         O28       1.0000    0.53650   0.00240   0.92150   Biso      1.000     O          -0.44123  
         O29       1.0000    0.40710   0.97140   0.88590   Biso      1.000     O          -0.58259  
         O30       1.0000    0.40710   0.88590   0.97140   Biso      1.000     O          -0.582589           
         O31       1.0000    0.53650   0.53410   0.61500   Biso      1.000     O          -0.441222           
         O32       1.0000    0.53650   0.92150   0.00240   Biso      1.000     O          -0.44123 