
##########################################################################
#               Crystallographic Information Format file
#               Produced by PyCifRW module
#
#  This is a CIF file.  CIF has been adopted by the International
#  Union of Crystallography as the standard for data archiving and
#  transmission.
#
#  For information on this file format, follow the CIF links at
#  http://www.iucr.org
##########################################################################

data_image0

_cell_length_a                          12.847
_cell_length_b                          14.844
_cell_length_c                          15.148
_cell_angle_alpha                       90
_cell_angle_beta                        90
_cell_angle_gamma                       90
_symmetry_space_group_name_H-M          'P 1'
_symmetry_int_tables_number             1
loop_
  _symmetry_equiv_pos_as_xyz
         'x, y, z' 
loop_
  _atom_site_label
  _atom_site_occupancy
  _atom_site_fract_x
  _atom_site_fract_y
  _atom_site_fract_z
  _atom_site_thermal_displace_type
  _atom_site_B_iso_or_equiv
  _atom_site_type_symbol
  _atom_site_charge
         C1        1.0000    0.86900   0.04653   0.33202   Biso      1.000     C          -0.240833           
         C2        1.0000    0.88620   0.21019   0.36717   Biso      1.000     C          0.610234  
         C3        1.0000    0.13100   0.95347   0.66798   Biso      1.000     C          -0.23620700000000003          
         C4        1.0000    0.82620   0.97519   0.28420   Biso      1.000     C          0.349473  
         C5        1.0000    0.84060   0.13433   0.31359   Biso      1.000     C          0.004804  
         C6        1.0000    0.34867   0.90140   0.12463   Biso      1.000     C          0.660929  
         C7        1.0000    0.22936   0.84794   0.24594   Biso      1.000     C          -0.117052           
         C8        1.0000    0.27207   0.91847   0.19787   Biso      1.000     C          -0.001973           
         C9        1.0000    0.24460   0.00641   0.21776   Biso      1.000     C          -0.195421           
         C10       1.0000    0.11380   0.78981   0.36717   Biso      1.000     C          0.608575  
         C11       1.0000    0.13100   0.95347   0.33202   Biso      1.000     C          -0.233659           
         C12       1.0000    0.17380   0.02481   0.28420   Biso      1.000     C          0.348627  
         C13       1.0000    0.75540   0.99359   0.21776   Biso      1.000     C          -0.202521           
         C14       1.0000    0.15940   0.86567   0.31359   Biso      1.000     C          0.006987  
         C15       1.0000    0.72936   0.65206   0.25406   Biso      1.000     C          -0.11623199999999999          
         C16       1.0000    0.77207   0.58153   0.30213   Biso      1.000     C          -0.0017920000000000002        
         C17       1.0000    0.74460   0.49359   0.28224   Biso      1.000     C          -0.195627           
         C18       1.0000    0.61380   0.71019   0.13283   Biso      1.000     C          0.6081529999999999  
         C19       1.0000    0.63100   0.54653   0.16798   Biso      1.000     C          -0.23586999999999997          
         C20       1.0000    0.67380   0.47519   0.21580   Biso      1.000     C          0.34820500000000004           
         C21       1.0000    0.65940   0.63433   0.18641   Biso      1.000     C          0.006533  
         C22       1.0000    0.15133   0.40140   0.37537   Biso      1.000     C          0.660963  
         C23       1.0000    0.27064   0.34794   0.25406   Biso      1.000     C          -0.11894600000000001          
         C24       1.0000    0.22793   0.41847   0.30213   Biso      1.000     C          -0.0017219999999999998        
         C25       1.0000    0.25540   0.50641   0.28224   Biso      1.000     C          -0.196776           
         C26       1.0000    0.84867   0.59860   0.37537   Biso      1.000     C          0.660366  
         C27       1.0000    0.38620   0.28981   0.13283   Biso      1.000     C          0.609005  
         C28       1.0000    0.72793   0.08153   0.19787   Biso      1.000     C          -0.002751           
         C29       1.0000    0.65133   0.09860   0.12463   Biso      1.000     C          0.6620699999999999  
         C30       1.0000    0.65133   0.09860   0.87537   Biso      1.000     C          0.660959  
         C31       1.0000    0.77064   0.15206   0.75406   Biso      1.000     C          -0.118165           
         C32       1.0000    0.72793   0.08153   0.80213   Biso      1.000     C          -0.001779           
         C33       1.0000    0.75540   0.99359   0.78224   Biso      1.000     C          -0.196027           
         C34       1.0000    0.88620   0.21019   0.63283   Biso      1.000     C          0.609043  
         C35       1.0000    0.86900   0.04653   0.66798   Biso      1.000     C          -0.23548899999999998          
         C36       1.0000    0.82620   0.97519   0.71580   Biso      1.000     C          0.348494  
         C37       1.0000    0.84060   0.13433   0.68641   Biso      1.000     C          0.006712999999999999          
         C38       1.0000    0.15133   0.40140   0.62463   Biso      1.000     C          0.6609189999999999  
         C39       1.0000    0.27064   0.34794   0.74594   Biso      1.000     C          -0.11890099999999999          
         C40       1.0000    0.22793   0.41847   0.69787   Biso      1.000     C          -0.0018670000000000002        
         C41       1.0000    0.77064   0.15206   0.24594   Biso      1.000     C          -0.128525           
         C42       1.0000    0.25540   0.50641   0.71776   Biso      1.000     C          -0.1964   
         C43       1.0000    0.36900   0.45347   0.83202   Biso      1.000     C          -0.23632199999999998          
         C44       1.0000    0.32620   0.52481   0.78420   Biso      1.000     C          0.348391  
         C45       1.0000    0.34060   0.36567   0.81359   Biso      1.000     C          0.006693000000000001          
         C46       1.0000    0.84867   0.59860   0.62463   Biso      1.000     C          0.660858  
         C47       1.0000    0.72936   0.65206   0.74594   Biso      1.000     C          -0.11906099999999999          
         C48       1.0000    0.77207   0.58153   0.69787   Biso      1.000     C          -0.001852           
         C49       1.0000    0.74460   0.49359   0.71776   Biso      1.000     C          -0.196575           
         C50       1.0000    0.61380   0.71019   0.86717   Biso      1.000     C          0.6089439999999999  
         C51       1.0000    0.63100   0.54653   0.83202   Biso      1.000     C          -0.23636999999999997          
         C52       1.0000    0.67380   0.47519   0.78420   Biso      1.000     C          0.348348  
         C53       1.0000    0.65940   0.63433   0.81359   Biso      1.000     C          0.006529999999999999          
         C54       1.0000    0.38620   0.28981   0.86717   Biso      1.000     C          0.608905  
         C55       1.0000    0.36900   0.45347   0.16798   Biso      1.000     C          -0.236483           
         C56       1.0000    0.32620   0.52481   0.21580   Biso      1.000     C          0.348224  
         C57       1.0000    0.34060   0.36567   0.18641   Biso      1.000     C          0.006601999999999999          
         C58       1.0000    0.34867   0.90140   0.87537   Biso      1.000     C          0.660953  
         C59       1.0000    0.22936   0.84794   0.75406   Biso      1.000     C          -0.11878699999999999          
         C60       1.0000    0.27207   0.91847   0.80213   Biso      1.000     C          -0.001861           
         C61       1.0000    0.24460   0.00641   0.78224   Biso      1.000     C          -0.196205           
         C62       1.0000    0.11380   0.78981   0.63283   Biso      1.000     C          0.608857  
         C63       1.0000    0.15940   0.86567   0.68641   Biso      1.000     C          0.006689  
         C64       1.0000    0.17380   0.02481   0.71580   Biso      1.000     C          0.348409  
         H1        1.0000    0.89650   0.87530   0.65340   Biso      1.000     H          0.337361  
         H2        1.0000    0.24760   0.78880   0.23280   Biso      1.000     H          0.115119  
         H3        1.0000    0.27420   0.05360   0.18610   Biso      1.000     H          0.147954  
         H4        1.0000    0.08300   0.96510   0.37660   Biso      1.000     H          0.129365  
         H5        1.0000    0.91200   0.34600   0.54580   Biso      1.000     H          0.45188199999999995           
         H6        1.0000    0.60350   0.37530   0.15340   Biso      1.000     H          0.33719899999999997           
         H7        1.0000    0.67560   0.34220   0.22330   Biso      1.000     H          0.353549  
         H8        1.0000    0.74760   0.71120   0.26720   Biso      1.000     H          0.11666900000000001           
         H9        1.0000    0.77420   0.44640   0.31390   Biso      1.000     H          0.148279  
         H10       1.0000    0.58300   0.53490   0.12340   Biso      1.000     H          0.12869   
         H11       1.0000    0.17560   0.15780   0.27670   Biso      1.000     H          0.352567  
         H12       1.0000    0.08800   0.65400   0.54580   Biso      1.000     H          0.45192899999999997           
         H13       1.0000    0.32440   0.65780   0.22330   Biso      1.000     H          0.35256   
         H14       1.0000    0.25240   0.28880   0.26720   Biso      1.000     H          0.115151  
         H15       1.0000    0.22580   0.55360   0.31390   Biso      1.000     H          0.14792   
         H16       1.0000    0.41700   0.46510   0.12340   Biso      1.000     H          0.128556  
         H17       1.0000    0.27420   0.05360   0.81390   Biso      1.000     H          0.147926  
         H18       1.0000    0.24760   0.78880   0.76720   Biso      1.000     H          0.11507200000000001           
         H19       1.0000    0.17560   0.15780   0.72330   Biso      1.000     H          0.352491  
         H20       1.0000    0.10350   0.12470   0.65340   Biso      1.000     H          0.33724299999999996           
         H21       1.0000    0.41200   0.15400   0.04580   Biso      1.000     H          0.45198900000000003           
         H22       1.0000    0.39650   0.62470   0.15340   Biso      1.000     H          0.337091  
         H23       1.0000    0.10350   0.12470   0.34660   Biso      1.000     H          0.33763699999999996           
         H24       1.0000    0.41200   0.15400   0.95420   Biso      1.000     H          0.451784  
         H25       1.0000    0.91700   0.03490   0.37660   Biso      1.000     H          0.127391  
         H26       1.0000    0.82440   0.84220   0.72330   Biso      1.000     H          0.352555  
         H27       1.0000    0.75240   0.21120   0.76720   Biso      1.000     H          0.115191  
         H28       1.0000    0.72580   0.94640   0.81390   Biso      1.000     H          0.147957  
         H29       1.0000    0.91700   0.03490   0.62340   Biso      1.000     H          0.129003  
         H30       1.0000    0.08800   0.65400   0.45420   Biso      1.000     H          0.452014  
         H31       1.0000    0.39650   0.62470   0.84660   Biso      1.000     H          0.33717800000000003           
         H32       1.0000    0.32440   0.65780   0.77670   Biso      1.000     H          0.352479  
         H33       1.0000    0.25240   0.28880   0.73280   Biso      1.000     H          0.115077  
         H34       1.0000    0.22580   0.55360   0.68610   Biso      1.000     H          0.147899  
         H35       1.0000    0.41700   0.46510   0.87660   Biso      1.000     H          0.128661  
         H36       1.0000    0.91200   0.34600   0.45420   Biso      1.000     H          0.451978  
         H37       1.0000    0.60350   0.37530   0.84660   Biso      1.000     H          0.337131  
         H38       1.0000    0.67560   0.34220   0.77670   Biso      1.000     H          0.352543  
         H39       1.0000    0.74760   0.71120   0.73280   Biso      1.000     H          0.115183  
         H40       1.0000    0.77420   0.44640   0.68610   Biso      1.000     H          0.147927  
         H41       1.0000    0.58300   0.53490   0.87660   Biso      1.000     H          0.128603  
         H42       1.0000    0.58800   0.84600   0.95420   Biso      1.000     H          0.45186800000000005           
         H43       1.0000    0.89650   0.87530   0.34660   Biso      1.000     H          0.335916  
         H44       1.0000    0.08300   0.96510   0.62340   Biso      1.000     H          0.128859  
         H45       1.0000    0.75240   0.21120   0.23280   Biso      1.000     H          0.114061  
         H46       1.0000    0.72580   0.94640   0.18610   Biso      1.000     H          0.146994  
         H47       1.0000    0.58800   0.84600   0.04580   Biso      1.000     H          0.45207600000000003           
         H48       1.0000    0.82440   0.84220   0.27670   Biso      1.000     H          0.351256  
         Mg1       1.0000    0.55671   0.23764   0.00000   Biso      1.000     Mg          1.4216030000000002  
         Mg2       1.0000    0.50000   0.00000   0.00000   Biso      1.000     Mg          1.4262549999999998  
         Mg3       1.0000    0.00000   0.50000   0.50000   Biso      1.000     Mg          1.426397  
         Mg4       1.0000    0.05671   0.26236   0.50000   Biso      1.000     Mg          1.4217549999999999  
         Mg5       1.0000    0.94329   0.73764   0.50000   Biso      1.000     Mg          1.42215   
         Mg6       1.0000    0.44329   0.76236   0.00000   Biso      1.000     Mg          1.421952  
         N1        1.0000    0.14760   0.11390   0.69480   Biso      1.000     N          -0.6197020000000001           
         N2        1.0000    0.85240   0.88610   0.69480   Biso      1.000     N          -0.618953           
         N3        1.0000    0.35240   0.61390   0.80520   Biso      1.000     N          -0.620004           
         N4        1.0000    0.64760   0.38610   0.80520   Biso      1.000     N          -0.6202449999999999           
         N5        1.0000    0.14760   0.11390   0.30520   Biso      1.000     N          -0.616236           
         N6        1.0000    0.64760   0.38610   0.19480   Biso      1.000     N          -0.616518           
         N7        1.0000    0.35240   0.61390   0.19480   Biso      1.000     N          -0.619829           
         N8        1.0000    0.85240   0.88610   0.30520   Biso      1.000     N          -0.639166           
         O1        1.0000    0.97116   0.19490   0.59454   Biso      1.000     O          -0.694986           
         O2        1.0000    0.89596   0.53228   0.59514   Biso      1.000     O          -0.636355           
         O3        1.0000    0.47116   0.30510   0.90546   Biso      1.000     O          -0.695277           
         O4        1.0000    0.33680   0.21675   0.87087   Biso      1.000     O          -0.550034           
         O5        1.0000    0.14142   0.32269   0.59850   Biso      1.000     O          -0.686284           
         O6        1.0000    0.10404   0.46772   0.59514   Biso      1.000     O          -0.636422           
         O7        1.0000    0.83680   0.28325   0.62913   Biso      1.000     O          -0.549431           
         O8        1.0000    0.05996   0.63269   0.50000   Biso      1.000     O          -0.9640620000000001           
         O9        1.0000    0.60404   0.03228   0.90486   Biso      1.000     O          -0.636109           
         O10       1.0000    0.02884   0.80510   0.59454   Biso      1.000     O          -0.6952   
         O11       1.0000    0.16320   0.71675   0.62913   Biso      1.000     O          -0.5501689999999999           
         O12       1.0000    0.35858   0.82269   0.90150   Biso      1.000     O          -0.6864939999999999           
         O13       1.0000    0.39596   0.96772   0.90486   Biso      1.000     O          -0.636301           
         O14       1.0000    0.85858   0.67731   0.59850   Biso      1.000     O          -0.686078           
         O15       1.0000    0.94004   0.36731   0.50000   Biso      1.000     O          -0.964045           
         O16       1.0000    0.64142   0.17731   0.90150   Biso      1.000     O          -0.685898           
         O17       1.0000    0.66320   0.78325   0.87087   Biso      1.000     O          -0.54972  
         O18       1.0000    0.39596   0.96772   0.09514   Biso      1.000     O          -0.635788           
         O19       1.0000    0.60404   0.03228   0.09514   Biso      1.000     O          -0.637984           
         O20       1.0000    0.47116   0.30510   0.09454   Biso      1.000     O          -0.6950430000000001           
         O21       1.0000    0.33680   0.21675   0.12913   Biso      1.000     O          -0.549716           
         O22       1.0000    0.14142   0.32269   0.40150   Biso      1.000     O          -0.686084           
         O23       1.0000    0.10404   0.46772   0.40486   Biso      1.000     O          -0.6363979999999999           
         O24       1.0000    0.52884   0.69490   0.09454   Biso      1.000     O          -0.69543  
         O25       1.0000    0.66320   0.78325   0.12913   Biso      1.000     O          -0.546392           
         O26       1.0000    0.85858   0.67731   0.40150   Biso      1.000     O          -0.684404           
         O27       1.0000    0.89596   0.53228   0.40486   Biso      1.000     O          -0.6364810000000001           
         O28       1.0000    0.02884   0.80510   0.40546   Biso      1.000     O          -0.693166           
         O29       1.0000    0.16320   0.71675   0.37087   Biso      1.000     O          -0.550289           
         O30       1.0000    0.35858   0.82269   0.09850   Biso      1.000     O          -0.686496           
         O31       1.0000    0.44004   0.13269   0.00000   Biso      1.000     O          -0.963723           
         O32       1.0000    0.97116   0.19490   0.40546   Biso      1.000     O          -0.697253           
         O33       1.0000    0.83680   0.28325   0.37087   Biso      1.000     O          -0.551894           
         O34       1.0000    0.64142   0.17731   0.09850   Biso      1.000     O          -0.687956           
         O35       1.0000    0.52884   0.69490   0.90546   Biso      1.000     O          -0.6956220000000001           
         O36       1.0000    0.55996   0.86731   0.00000   Biso      1.000     O          -0.9636620000000001 