
##########################################################################
#               Crystallographic Information Format file
#               Produced by PyCifRW module
#
#  This is a CIF file.  CIF has been adopted by the International
#  Union of Crystallography as the standard for data archiving and
#  transmission.
#
#  For information on this file format, follow the CIF links at
#  http://www.iucr.org
##########################################################################

data_image0

_cell_length_a                          7.4296
_cell_length_b                          11.627
_cell_length_c                          14.0761
_cell_angle_alpha                       114.394
_cell_angle_beta                        98.7723
_cell_angle_gamma                       90
_symmetry_space_group_name_H-M          'P 1'
_symmetry_int_tables_number             1
loop_
  _symmetry_equiv_pos_as_xyz
         'x, y, z' 
loop_
  _atom_site_label
  _atom_site_occupancy
  _atom_site_fract_x
  _atom_site_fract_y
  _atom_site_fract_z
  _atom_site_thermal_displace_type
  _atom_site_B_iso_or_equiv
  _atom_site_type_symbol
  _atom_site_charge
         C1        1.0000    0.60740   0.69116   0.52312   Biso      1.000     C          -0.241371           
         C2        1.0000    0.18290   0.95098   0.59536   Biso      1.000     C          0.265927  
         C3        1.0000    0.71160   0.01518   0.54356   Biso      1.000     C          -0.097073           
         C4        1.0000    0.05460   0.93091   0.73242   Biso      1.000     C          -0.195001           
         C5        1.0000    0.03040   0.00226   0.84592   Biso      1.000     C          0.687888  
         C6        1.0000    0.73950   0.45165   0.26930   Biso      1.000     C          0.607245  
         C7        1.0000    0.71810   0.51821   0.38342   Biso      1.000     C          -0.048001           
         C8        1.0000    0.62590   0.62797   0.41794   Biso      1.000     C          -0.067074           
         C9        1.0000    0.31710   0.35562   0.40464   Biso      1.000     C          0.26753   
         C10       1.0000    0.22950   0.46693   0.43826   Biso      1.000     C          -0.217351           
         C11       1.0000    0.78840   0.47162   0.45644   Biso      1.000     C          -0.096413           
         C12       1.0000    0.44540   0.19849   0.26758   Biso      1.000     C          -0.194884           
         C13       1.0000    0.46960   0.15634   0.15408   Biso      1.000     C          0.68918   
         C14       1.0000    0.23950   0.81765   0.26930   Biso      1.000     C          0.606623  
         C15       1.0000    0.21810   0.86521   0.38342   Biso      1.000     C          -0.048029           
         C16       1.0000    0.89260   0.16804   0.47688   Biso      1.000     C          -0.240524           
         C17       1.0000    0.12590   0.78997   0.41794   Biso      1.000     C          -0.0673   
         C18       1.0000    0.81710   0.04902   0.40464   Biso      1.000     C          0.265928  
         C19       1.0000    0.72950   0.97133   0.43826   Biso      1.000     C          -0.214924           
         C20       1.0000    0.28840   0.98482   0.45644   Biso      1.000     C          -0.097072           
         C21       1.0000    0.94540   0.06909   0.26758   Biso      1.000     C          -0.195001           
         C22       1.0000    0.96960   0.99774   0.15408   Biso      1.000     C          0.687888  
         C23       1.0000    0.26050   0.54835   0.73070   Biso      1.000     C          0.607245  
         C24       1.0000    0.28190   0.48179   0.61658   Biso      1.000     C          -0.048001           
         C25       1.0000    0.37410   0.37203   0.58206   Biso      1.000     C          -0.067077           
         C26       1.0000    0.39260   0.30884   0.47688   Biso      1.000     C          -0.241368           
         C27       1.0000    0.68290   0.64438   0.59536   Biso      1.000     C          0.26753   
         C28       1.0000    0.77050   0.53307   0.56174   Biso      1.000     C          -0.217348           
         C29       1.0000    0.21160   0.52838   0.54356   Biso      1.000     C          -0.096409           
         C30       1.0000    0.55460   0.80151   0.73242   Biso      1.000     C          -0.194884           
         C31       1.0000    0.53040   0.84366   0.84592   Biso      1.000     C          0.68918   
         C32       1.0000    0.10740   0.83196   0.52312   Biso      1.000     C          -0.240521           
         C33       1.0000    0.87410   0.21003   0.58206   Biso      1.000     C          -0.067298           
         C34       1.0000    0.27050   0.02867   0.56174   Biso      1.000     C          -0.214923           
         C35       1.0000    0.76050   0.18235   0.73070   Biso      1.000     C          0.606623  
         C36       1.0000    0.78190   0.13479   0.61658   Biso      1.000     C          -0.048027           
         H1        1.0000    0.70400   0.11010   0.04020   Biso      1.000     H          0.438604  
         H2        1.0000    0.92430   0.28990   0.63040   Biso      1.000     H          0.116193  
         H3        1.0000    0.95530   0.21920   0.45480   Biso      1.000     H          0.124275  
         H4        1.0000    0.31700   0.10970   0.60960   Biso      1.000     H          0.129178  
         H5        1.0000    0.65100   0.96320   0.56580   Biso      1.000     H          0.101284  
         H6        1.0000    0.10310   0.85020   0.72300   Biso      1.000     H          0.121335  
         H7        1.0000    0.93670   0.91430   0.68700   Biso      1.000     H          0.132608  
         H8        1.0000    0.79600   0.06990   0.95980   Biso      1.000     H          0.438834  
         H9        1.0000    0.57570   0.65950   0.36960   Biso      1.000     H          0.115856  
         H10       1.0000    0.54470   0.76440   0.54520   Biso      1.000     H          0.124693  
         H11       1.0000    0.84900   0.39740   0.43420   Biso      1.000     H          0.101208  
         H12       1.0000    0.39690   0.12720   0.27700   Biso      1.000     H          0.120757  
         H13       1.0000    0.56330   0.22730   0.31300   Biso      1.000     H          0.132265  
         H14       1.0000    0.29600   0.88990   0.95980   Biso      1.000     H          0.438604  
         H15       1.0000    0.18300   0.50010   0.39040   Biso      1.000     H          0.129964  
         H16       1.0000    0.04470   0.78080   0.54520   Biso      1.000     H          0.124275  
         H17       1.0000    0.43670   0.77270   0.68700   Biso      1.000     H          0.132265  
         H18       1.0000    0.07570   0.71010   0.36960   Biso      1.000     H          0.116193  
         H19       1.0000    0.15100   0.60260   0.56580   Biso      1.000     H          0.101207  
         H20       1.0000    0.81700   0.49990   0.60960   Biso      1.000     H          0.129964  
         H21       1.0000    0.45530   0.23560   0.45480   Biso      1.000     H          0.124693  
         H22       1.0000    0.42430   0.34050   0.63040   Biso      1.000     H          0.115856  
         H23       1.0000    0.60310   0.87280   0.72300   Biso      1.000     H          0.120757  
         H24       1.0000    0.06330   0.08570   0.31300   Biso      1.000     H          0.132608  
         H25       1.0000    0.89690   0.14980   0.27700   Biso      1.000     H          0.121335  
         H26       1.0000    0.34900   0.03680   0.43420   Biso      1.000     H          0.101284  
         H27       1.0000    0.68300   0.89030   0.39040   Biso      1.000     H          0.129178  
         H28       1.0000    0.20400   0.93010   0.04020   Biso      1.000     H          0.438834  
         O1        1.0000    0.34760   0.87691   0.24318   Biso      1.000     O          -0.710279           
         O2        1.0000    0.14070   0.71827   0.20646   Biso      1.000     O          -0.65734  
         O3        1.0000    0.82510   0.99997   0.29802   Biso      1.000     O          -0.241154           
         O4        1.0000    0.89290   0.89010   0.09718   Biso      1.000     O          -0.678159           
         O5        1.0000    0.07540   0.05780   0.12548   Biso      1.000     O          -0.656703           
         O6        1.0000    0.42460   0.93232   0.87452   Biso      1.000     O          -0.656765           
         O7        1.0000    0.60710   0.79292   0.90282   Biso      1.000     O          -0.679052           
         O8        1.0000    0.67490   0.70195   0.70198   Biso      1.000     O          -0.241443           
         O9        1.0000    0.57540   0.06768   0.12548   Biso      1.000     O          -0.656765           
         O10       1.0000    0.35930   0.51181   0.79354   Biso      1.000     O          -0.657638           
         O11       1.0000    0.15240   0.63373   0.75682   Biso      1.000     O          -0.710173           
         O12       1.0000    0.39290   0.20708   0.09718   Biso      1.000     O          -0.679052           
         O13       1.0000    0.25000   0.86540   0.00000   Biso      1.000     O          -0.92877  
         O14       1.0000    0.64070   0.48819   0.20646   Biso      1.000     O          -0.657638           
         O15       1.0000    0.84760   0.36627   0.24318   Biso      1.000     O          -0.710173           
         O16       1.0000    0.92460   0.94220   0.87452   Biso      1.000     O          -0.656703           
         O17       1.0000    0.10710   0.10990   0.90282   Biso      1.000     O          -0.678159           
         O18       1.0000    0.17490   0.00003   0.70198   Biso      1.000     O          -0.241154           
         O19       1.0000    0.85930   0.28173   0.79354   Biso      1.000     O          -0.65734  
         O20       1.0000    0.65240   0.12309   0.75682   Biso      1.000     O          -0.710279           
         O21       1.0000    0.75000   0.13460   0.00000   Biso      1.000     O          -0.92877  
         O22       1.0000    0.32510   0.29805   0.29802   Biso      1.000     O          -0.241443           
         Sr1       1.0000    0.93847   0.73105   0.88946   Biso      1.000     Sr          1.547114  
         Sr2       1.0000    0.56153   0.84159   0.11054   Biso      1.000     Sr          1.546854  
         Sr3       1.0000    0.06153   0.26895   0.11054   Biso      1.000     Sr          1.547115  
         Sr4       1.0000    0.43847   0.15841   0.88946   Biso      1.000     Sr          1.546855 