
##########################################################################
#               Crystallographic Information Format file
#               Produced by PyCifRW module
#
#  This is a CIF file.  CIF has been adopted by the International
#  Union of Crystallography as the standard for data archiving and
#  transmission.
#
#  For information on this file format, follow the CIF links at
#  http://www.iucr.org
##########################################################################

data_image0

_cell_length_a                          8.7362
_cell_length_b                          8.9023
_cell_length_c                          24.059
_cell_angle_alpha                       93.75
_cell_angle_beta                        90
_cell_angle_gamma                       90
_symmetry_space_group_name_H-M          'P 1'
_symmetry_int_tables_number             1
loop_
  _symmetry_equiv_pos_as_xyz
         'x, y, z' 
loop_
  _atom_site_label
  _atom_site_occupancy
  _atom_site_fract_x
  _atom_site_fract_y
  _atom_site_fract_z
  _atom_site_thermal_displace_type
  _atom_site_B_iso_or_equiv
  _atom_site_type_symbol
  _atom_site_charge
         C1        1.0000    0.64510   0.57850   0.64347   Biso      1.000     C          0.10142899999999999           
         C2        1.0000    0.86630   0.54730   0.88986   Biso      1.000     C          -0.325312           
         C3        1.0000    0.01250   0.57260   0.92267   Biso      1.000     C          -0.32715  
         C4        1.0000    0.03470   0.72480   0.95295   Biso      1.000     C          0.649738  
         C5        1.0000    0.51520   0.97340   0.96983   Biso      1.000     C          -0.19108  
         C6        1.0000    0.58580   0.09990   0.93927   Biso      1.000     C          -0.101765           
         C7        1.0000    0.60710   0.15370   0.83765   Biso      1.000     C          -0.15673299999999998          
         C8        1.0000    0.64190   0.06770   0.79034   Biso      1.000     C          -0.048773000000000004         
         C9        1.0000    0.64510   0.92150   0.85653   Biso      1.000     C          0.10142899999999999           
         C10       1.0000    0.05870   0.17930   0.74880   Biso      1.000     C          -0.178589           
         C11       1.0000    0.14930   0.08170   0.78420   Biso      1.000     C          -0.100656           
         C12       1.0000    0.21600   0.22440   0.87560   Biso      1.000     C          -0.136507           
         C13       1.0000    0.85800   0.62840   0.83692   Biso      1.000     C          0.636409  
         C14       1.0000    0.17980   0.20640   0.92960   Biso      1.000     C          -0.036504           
         C15       1.0000    0.85800   0.87160   0.66308   Biso      1.000     C          0.63641   
         C16       1.0000    0.86630   0.95270   0.61014   Biso      1.000     C          -0.325313           
         C17       1.0000    0.01250   0.92740   0.57733   Biso      1.000     C          -0.32715  
         C18       1.0000    0.03470   0.77520   0.54705   Biso      1.000     C          0.649738  
         C19       1.0000    0.51520   0.52660   0.53017   Biso      1.000     C          -0.19108  
         C20       1.0000    0.58580   0.40010   0.56073   Biso      1.000     C          -0.101765           
         C21       1.0000    0.60710   0.34630   0.66235   Biso      1.000     C          -0.15673299999999998          
         C22       1.0000    0.64190   0.43230   0.70966   Biso      1.000     C          -0.048773000000000004         
         C23       1.0000    0.05870   0.32070   0.75120   Biso      1.000     C          -0.178404           
         C24       1.0000    0.14930   0.41830   0.71580   Biso      1.000     C          -0.100674           
         C25       1.0000    0.21600   0.27560   0.62440   Biso      1.000     C          -0.136506           
         C26       1.0000    0.06140   0.03220   0.88090   Biso      1.000     C          0.10670999999999999           
         C27       1.0000    0.93860   0.53220   0.38090   Biso      1.000     C          0.106709  
         C28       1.0000    0.82020   0.70640   0.42960   Biso      1.000     C          -0.03652  
         C29       1.0000    0.78400   0.72440   0.37560   Biso      1.000     C          -0.136491           
         C30       1.0000    0.14200   0.37160   0.16308   Biso      1.000     C          0.636409  
         C31       1.0000    0.13370   0.45270   0.11014   Biso      1.000     C          -0.325312           
         C32       1.0000    0.98750   0.42740   0.07733   Biso      1.000     C          -0.32715  
         C33       1.0000    0.96530   0.27520   0.04705   Biso      1.000     C          0.649738  
         C34       1.0000    0.48480   0.02660   0.03017   Biso      1.000     C          -0.19108  
         C35       1.0000    0.41420   0.90010   0.06073   Biso      1.000     C          -0.101765           
         C36       1.0000    0.39290   0.84630   0.16235   Biso      1.000     C          -0.15673299999999998          
         C37       1.0000    0.35810   0.93230   0.20966   Biso      1.000     C          -0.048774           
         C38       1.0000    0.35490   0.07850   0.14347   Biso      1.000     C          0.10142899999999999           
         C39       1.0000    0.94130   0.82070   0.25120   Biso      1.000     C          -0.178589           
         C40       1.0000    0.85070   0.91830   0.21580   Biso      1.000     C          -0.100656           
         C41       1.0000    0.78400   0.77560   0.12440   Biso      1.000     C          -0.136506           
         C42       1.0000    0.82020   0.79360   0.07040   Biso      1.000     C          -0.036503           
         C43       1.0000    0.93860   0.96780   0.11910   Biso      1.000     C          0.10670999999999999           
         C44       1.0000    0.14200   0.12840   0.33692   Biso      1.000     C          0.63641   
         C45       1.0000    0.13370   0.04730   0.38986   Biso      1.000     C          -0.325313           
         C46       1.0000    0.98750   0.07260   0.42267   Biso      1.000     C          -0.32715  
         C47       1.0000    0.96530   0.22480   0.45295   Biso      1.000     C          0.649738  
         C48       1.0000    0.48480   0.47340   0.46983   Biso      1.000     C          -0.19108  
         C49       1.0000    0.41420   0.59990   0.43927   Biso      1.000     C          -0.101765           
         C50       1.0000    0.39290   0.65370   0.33765   Biso      1.000     C          -0.15673299999999998          
         C51       1.0000    0.35810   0.56770   0.29034   Biso      1.000     C          -0.048773000000000004         
         C52       1.0000    0.35490   0.42150   0.35653   Biso      1.000     C          0.10142899999999999           
         C53       1.0000    0.94130   0.67930   0.24880   Biso      1.000     C          -0.178404           
         C54       1.0000    0.85070   0.58170   0.28420   Biso      1.000     C          -0.100674           
         C55       1.0000    0.17980   0.29360   0.57040   Biso      1.000     C          -0.036504           
         C56       1.0000    0.06140   0.46780   0.61910   Biso      1.000     C          0.106709  
         Cu1       1.0000    0.71266   0.75000   0.75000   Biso      1.000     Cu          0.758322  
         Cu2       1.0000    0.28734   0.25000   0.25000   Biso      1.000     Cu          0.758322  
         Cu3       1.0000    0.00000   0.50000   0.50000   Biso      1.000     Cu          0.744398  
         Cu4       1.0000    0.00000   0.00000   0.00000   Biso      1.000     Cu          0.744395  
         H1        1.0000    0.21930   0.07930   0.41340   Biso      1.000     H          0.13411099999999998           
         H2        1.0000    0.14520   0.94020   0.38060   Biso      1.000     H          0.130575  
         H3        1.0000    0.21560   0.26630   0.95990   Biso      1.000     H          0.12101300000000001           
         H4        1.0000    0.27960   0.29750   0.86200   Biso      1.000     H          0.131995  
         H5        1.0000    0.11730   0.97840   0.77570   Biso      1.000     H          0.13280999999999998           
         H6        1.0000    0.25590   0.08860   0.77330   Biso      1.000     H          0.096962  
         H7        1.0000    0.08550   0.14780   0.71070   Biso      1.000     H          0.10876300000000001           
         H8        1.0000    0.95280   0.15010   0.75360   Biso      1.000     H          0.10346500000000002           
         H9        1.0000    0.64790   0.10350   0.75490   Biso      1.000     H          0.11127000000000001           
         H10       1.0000    0.78070   0.92070   0.58660   Biso      1.000     H          0.13411099999999998           
         H11       1.0000    0.58600   0.25620   0.84080   Biso      1.000     H          0.13505899999999998           
         H12       1.0000    0.51940   0.18730   0.94300   Biso      1.000     H          0.10796199999999999           
         H13       1.0000    0.68330   0.12760   0.95630   Biso      1.000     H          0.11844400000000001           
         H14       1.0000    0.58420   0.88780   0.96840   Biso      1.000     H          0.10800499999999999           
         H15       1.0000    0.42000   0.94180   0.95190   Biso      1.000     H          0.11291300000000001           
         H16       1.0000    0.65380   0.83570   0.87630   Biso      1.000     H          0.107323  
         H17       1.0000    0.85480   0.05980   0.61940   Biso      1.000     H          0.130575  
         H18       1.0000    0.01800   0.00300   0.55010   Biso      1.000     H          0.131958  
         H19       1.0000    0.01800   0.49700   0.94990   Biso      1.000     H          0.131958  
         H20       1.0000    0.00060   0.55050   0.62970   Biso      1.000     H          0.11155999999999999           
         H21       1.0000    0.21560   0.23370   0.54010   Biso      1.000     H          0.121012  
         H22       1.0000    0.27960   0.20250   0.63800   Biso      1.000     H          0.131996  
         H23       1.0000    0.11730   0.52160   0.72430   Biso      1.000     H          0.13280999999999998           
         H24       1.0000    0.25590   0.41140   0.72670   Biso      1.000     H          0.096964  
         H25       1.0000    0.08550   0.35220   0.78930   Biso      1.000     H          0.10875399999999999           
         H26       1.0000    0.09780   0.94500   0.60270   Biso      1.000     H          0.128495  
         H27       1.0000    0.95280   0.34990   0.74640   Biso      1.000     H          0.10345599999999999           
         H28       1.0000    0.64790   0.39650   0.74510   Biso      1.000     H          0.11127000000000001           
         H29       1.0000    0.58600   0.24380   0.65920   Biso      1.000     H          0.13505899999999998           
         H30       1.0000    0.51940   0.31270   0.55700   Biso      1.000     H          0.10796199999999999           
         H31       1.0000    0.68330   0.37240   0.54370   Biso      1.000     H          0.11844400000000001           
         H32       1.0000    0.58420   0.61220   0.53160   Biso      1.000     H          0.10800499999999999           
         H33       1.0000    0.42000   0.55820   0.54810   Biso      1.000     H          0.11291300000000001           
         H34       1.0000    0.65380   0.66430   0.62370   Biso      1.000     H          0.107323  
         H35       1.0000    0.09780   0.55500   0.89730   Biso      1.000     H          0.128495  
         H36       1.0000    0.00060   0.94950   0.87030   Biso      1.000     H          0.11155999999999999           
         H37       1.0000    0.78070   0.57930   0.91340   Biso      1.000     H          0.13410999999999998           
         H38       1.0000    0.98200   0.50300   0.05010   Biso      1.000     H          0.131958  
         H39       1.0000    0.58000   0.05820   0.04810   Biso      1.000     H          0.11291300000000001           
         H40       1.0000    0.41580   0.11220   0.03160   Biso      1.000     H          0.108004  
         H41       1.0000    0.31670   0.87240   0.04370   Biso      1.000     H          0.11844400000000001           
         H42       1.0000    0.48060   0.81270   0.05700   Biso      1.000     H          0.10796199999999999           
         H43       1.0000    0.41400   0.74380   0.15920   Biso      1.000     H          0.13505899999999998           
         H44       1.0000    0.35210   0.89650   0.24510   Biso      1.000     H          0.11127000000000001           
         H45       1.0000    0.34620   0.16430   0.12370   Biso      1.000     H          0.107323  
         H46       1.0000    0.04720   0.84990   0.24640   Biso      1.000     H          0.10346500000000002           
         H47       1.0000    0.91450   0.85220   0.28930   Biso      1.000     H          0.10876300000000001           
         H48       1.0000    0.74410   0.91140   0.22670   Biso      1.000     H          0.096962  
         H49       1.0000    0.88270   0.02160   0.22430   Biso      1.000     H          0.13280999999999998           
         H50       1.0000    0.85480   0.44020   0.88060   Biso      1.000     H          0.130575  
         H51       1.0000    0.78440   0.73370   0.04010   Biso      1.000     H          0.121012  
         H52       1.0000    0.99940   0.05050   0.12970   Biso      1.000     H          0.11155999999999999           
         H53       1.0000    0.90220   0.44500   0.10270   Biso      1.000     H          0.128495  
         H54       1.0000    0.14520   0.55980   0.11940   Biso      1.000     H          0.130575  
         H55       1.0000    0.72040   0.70250   0.13800   Biso      1.000     H          0.131995  
         H56       1.0000    0.90220   0.05500   0.39730   Biso      1.000     H          0.128495  
         H57       1.0000    0.99940   0.44950   0.37030   Biso      1.000     H          0.111561  
         H58       1.0000    0.78440   0.76630   0.45990   Biso      1.000     H          0.12101400000000001           
         H59       1.0000    0.72040   0.79750   0.36200   Biso      1.000     H          0.131995  
         H60       1.0000    0.88270   0.47840   0.27570   Biso      1.000     H          0.13280999999999998           
         H61       1.0000    0.91450   0.64780   0.21070   Biso      1.000     H          0.10875399999999999           
         H62       1.0000    0.04720   0.65010   0.25360   Biso      1.000     H          0.10345599999999999           
         H63       1.0000    0.34620   0.33570   0.37630   Biso      1.000     H          0.107323  
         H64       1.0000    0.74410   0.58860   0.27330   Biso      1.000     H          0.096964  
         H65       1.0000    0.41400   0.75620   0.34080   Biso      1.000     H          0.13505899999999998           
         H66       1.0000    0.48060   0.68730   0.44300   Biso      1.000     H          0.10796199999999999           
         H67       1.0000    0.31670   0.62760   0.45630   Biso      1.000     H          0.11844400000000001           
         H68       1.0000    0.41580   0.38780   0.46840   Biso      1.000     H          0.108004  
         H69       1.0000    0.58000   0.44180   0.45190   Biso      1.000     H          0.11291300000000001           
         H70       1.0000    0.98200   0.99700   0.44990   Biso      1.000     H          0.131958  
         H71       1.0000    0.35210   0.60350   0.25490   Biso      1.000     H          0.11127000000000001           
         H72       1.0000    0.21930   0.42070   0.08660   Biso      1.000     H          0.13410999999999998           
         N1        1.0000    0.38990   0.94280   0.12073   Biso      1.000     N          0.078821  
         N2        1.0000    0.91830   0.58530   0.43253   Biso      1.000     N          -0.276927           
         N3        1.0000    0.33390   0.07590   0.19797   Biso      1.000     N          -0.281298           
         N4        1.0000    0.86010   0.88680   0.15481   Biso      1.000     N          0.0667    
         N5        1.0000    0.91830   0.91470   0.06747   Biso      1.000     N          -0.276928           
         N6        1.0000    0.38990   0.55720   0.37927   Biso      1.000     N          0.078821  
         N7        1.0000    0.33390   0.42410   0.30203   Biso      1.000     N          -0.28129899999999997          
         N8        1.0000    0.86010   0.61320   0.34519   Biso      1.000     N          0.0667    
         N9        1.0000    0.61010   0.05720   0.87927   Biso      1.000     N          0.078821  
         N10       1.0000    0.13990   0.11320   0.84519   Biso      1.000     N          0.0667    
         N11       1.0000    0.08170   0.08530   0.93253   Biso      1.000     N          -0.276928           
         N12       1.0000    0.61010   0.44280   0.62073   Biso      1.000     N          0.078821  
         N13       1.0000    0.66610   0.57590   0.69797   Biso      1.000     N          -0.28129899999999997          
         N14       1.0000    0.13990   0.38680   0.65481   Biso      1.000     N          0.066701  
         N15       1.0000    0.08170   0.41470   0.56747   Biso      1.000     N          -0.276929           
         N16       1.0000    0.66610   0.92410   0.80203   Biso      1.000     N          -0.281298           
         O1        1.0000    0.27150   0.38220   0.18844   Biso      1.000     O          -0.5967279999999999           
         O2        1.0000    0.03430   0.29870   0.18006   Biso      1.000     O          -0.585037           
         O3        1.0000    0.84250   0.24970   0.47695   Biso      1.000     O          -0.619926           
         O4        1.0000    0.07410   0.31970   0.45373   Biso      1.000     O          -0.560938           
         O5        1.0000    0.27150   0.11780   0.31156   Biso      1.000     O          -0.5967279999999999           
         O6        1.0000    0.03430   0.20130   0.31994   Biso      1.000     O          -0.585036           
         O7        1.0000    0.15750   0.74970   0.97695   Biso      1.000     O          -0.619926           
         O8        1.0000    0.96570   0.70130   0.81994   Biso      1.000     O          -0.585037           
         O9        1.0000    0.72850   0.61780   0.81156   Biso      1.000     O          -0.5967279999999999           
         O10       1.0000    0.15750   0.75030   0.52305   Biso      1.000     O          -0.619926           
         O11       1.0000    0.92590   0.68030   0.54627   Biso      1.000     O          -0.560938           
         O12       1.0000    0.72850   0.88220   0.68844   Biso      1.000     O          -0.5967279999999999           
         O13       1.0000    0.96570   0.79870   0.68006   Biso      1.000     O          -0.585036           
         O14       1.0000    0.07410   0.18030   0.04627   Biso      1.000     O          -0.560937           
         O15       1.0000    0.92590   0.81970   0.95373   Biso      1.000     O          -0.560937           
         O16       1.0000    0.84250   0.25030   0.02305   Biso      1.000     O          -0.619926 