
##########################################################################
#               Crystallographic Information Format file
#               Produced by PyCifRW module
#
#  This is a CIF file.  CIF has been adopted by the International
#  Union of Crystallography as the standard for data archiving and
#  transmission.
#
#  For information on this file format, follow the CIF links at
#  http://www.iucr.org
##########################################################################

data_image0

_cell_length_a                          12.1655
_cell_length_b                          20.5144
_cell_length_c                          21.7012
_cell_angle_alpha                       90
_cell_angle_beta                        90
_cell_angle_gamma                       90
_symmetry_space_group_name_H-M          'P 1'
_symmetry_int_tables_number             1
loop_
  _symmetry_equiv_pos_as_xyz
         'x, y, z' 
loop_
  _atom_site_label
  _atom_site_occupancy
  _atom_site_fract_x
  _atom_site_fract_y
  _atom_site_fract_z
  _atom_site_thermal_displace_type
  _atom_site_B_iso_or_equiv
  _atom_site_type_symbol
  _atom_site_charge
         C1        1.0000    0.39500   0.74930   0.34490   Biso      1.000     C          0.574525  
         C2        1.0000    0.83790   0.88820   0.70510   Biso      1.000     C          0.57538   
         C3        1.0000    0.67830   0.82500   0.66480   Biso      1.000     C          -0.100803           
         C4        1.0000    0.59230   0.78230   0.67350   Biso      1.000     C          0.006386  
         C5        1.0000    0.74310   0.15610   0.28530   Biso      1.000     C          -0.011073999999999999         
         C6        1.0000    0.63280   0.77600   0.78210   Biso      1.000     C          -0.039724           
         C7        1.0000    0.71880   0.81980   0.77330   Biso      1.000     C          -0.125398           
         C8        1.0000    0.60500   0.75070   0.84490   Biso      1.000     C          0.574612  
         C9        1.0000    0.74310   0.84390   0.71470   Biso      1.000     C          -0.011073000000000001         
         C10       1.0000    0.60500   0.24930   0.15510   Biso      1.000     C          0.574612  
         C11       1.0000    0.83790   0.11180   0.29490   Biso      1.000     C          0.575381  
         C12       1.0000    0.67830   0.17500   0.33520   Biso      1.000     C          -0.100802           
         C13       1.0000    0.59230   0.21770   0.32650   Biso      1.000     C          0.006386  
         C14       1.0000    0.56710   0.24190   0.26880   Biso      1.000     C          -0.11691800000000001          
         C15       1.0000    0.63280   0.22400   0.21790   Biso      1.000     C          -0.039725           
         C16       1.0000    0.51810   0.23530   0.38190   Biso      1.000     C          0.5700529999999999  
         C17       1.0000    0.51810   0.76470   0.61810   Biso      1.000     C          0.5700529999999999  
         C18       1.0000    0.56710   0.75810   0.73120   Biso      1.000     C          -0.11691800000000001          
         C19       1.0000    0.28120   0.31980   0.72670   Biso      1.000     C          -0.125282           
         C20       1.0000    0.48190   0.73530   0.11810   Biso      1.000     C          0.570048  
         C21       1.0000    0.25690   0.34390   0.78530   Biso      1.000     C          -0.011192           
         C22       1.0000    0.32170   0.67500   0.16480   Biso      1.000     C          -0.10101399999999999          
         C23       1.0000    0.40770   0.71770   0.17350   Biso      1.000     C          0.0063    
         C24       1.0000    0.43290   0.74190   0.23120   Biso      1.000     C          -0.116834           
         C25       1.0000    0.36720   0.72400   0.28210   Biso      1.000     C          -0.039465           
         C26       1.0000    0.28120   0.68020   0.27330   Biso      1.000     C          -0.125282           
         C27       1.0000    0.16210   0.61180   0.20510   Biso      1.000     C          0.575468  
         C28       1.0000    0.48190   0.26470   0.88190   Biso      1.000     C          0.570048  
         C29       1.0000    0.25690   0.65610   0.21470   Biso      1.000     C          -0.011192           
         C30       1.0000    0.36720   0.27600   0.71790   Biso      1.000     C          -0.039464           
         C31       1.0000    0.43290   0.25810   0.76880   Biso      1.000     C          -0.116836           
         C32       1.0000    0.71880   0.18020   0.22670   Biso      1.000     C          -0.125397           
         C33       1.0000    0.32170   0.32500   0.83520   Biso      1.000     C          -0.10101399999999999          
         C34       1.0000    0.16210   0.38820   0.79490   Biso      1.000     C          0.5754670000000001  
         C35       1.0000    0.39500   0.25070   0.65510   Biso      1.000     C          0.574525  
         C36       1.0000    0.40770   0.28230   0.82650   Biso      1.000     C          0.006301  
         H1        1.0000    0.76070   0.16690   0.19310   Biso      1.000     H          0.12828399999999998           
         H2        1.0000    0.50750   0.26970   0.26350   Biso      1.000     H          0.133017  
         H3        1.0000    0.69330   0.15890   0.37440   Biso      1.000     H          0.124855  
         H4        1.0000    0.50750   0.73030   0.73650   Biso      1.000     H          0.133017  
         H5        1.0000    0.69330   0.84110   0.62560   Biso      1.000     H          0.124855  
         H6        1.0000    0.23930   0.33310   0.69310   Biso      1.000     H          0.128343  
         H7        1.0000    0.49250   0.23030   0.76350   Biso      1.000     H          0.133082  
         H8        1.0000    0.30670   0.34110   0.87440   Biso      1.000     H          0.12475699999999999           
         H9        1.0000    0.23930   0.66690   0.30690   Biso      1.000     H          0.128343  
         H10       1.0000    0.49250   0.76970   0.23650   Biso      1.000     H          0.133082  
         H11       1.0000    0.30670   0.65890   0.12560   Biso      1.000     H          0.12475599999999999           
         H12       1.0000    0.76070   0.83310   0.80690   Biso      1.000     H          0.12828499999999998           
         La1       1.0000    0.42587   0.80983   0.46772   Biso      1.000     La          2.086415  
         La2       1.0000    0.99751   0.00601   0.32349   Biso      1.000     La          2.043238  
         La3       1.0000    0.42587   0.19017   0.53228   Biso      1.000     La          2.086417  
         La4       1.0000    0.99751   0.99399   0.67651   Biso      1.000     La          2.0432360000000003  
         La5       1.0000    0.57413   0.69017   0.96772   Biso      1.000     La          2.086552  
         La6       1.0000    0.00249   0.49399   0.82349   Biso      1.000     La          2.04383   
         La7       1.0000    0.57413   0.30983   0.03228   Biso      1.000     La          2.086554  
         La8       1.0000    0.00249   0.50601   0.17651   Biso      1.000     La          2.04383   
         Mo1       1.0000    0.49358   0.00495   0.44074   Biso      1.000     Mo          1.215217  
         Mo2       1.0000    0.28382   0.10108   0.36865   Biso      1.000     Mo          1.324192  
         Mo3       1.0000    0.30406   0.93539   0.34207   Biso      1.000     Mo          1.59911   
         Mo4       1.0000    0.12194   0.85085   0.40554   Biso      1.000     Mo          1.5708389999999999  
         Mo5       1.0000    0.93223   0.06261   0.50902   Biso      1.000     Mo          1.2732370000000002  
         Mo6       1.0000    0.49358   0.99505   0.55926   Biso      1.000     Mo          1.215226  
         Mo7       1.0000    0.28382   0.89892   0.63135   Biso      1.000     Mo          1.324192  
         Mo8       1.0000    0.30406   0.06461   0.65793   Biso      1.000     Mo          1.59911   
         Mo9       1.0000    0.13843   0.15879   0.43563   Biso      1.000     Mo          1.284131  
         Mo10      1.0000    0.93223   0.93739   0.49098   Biso      1.000     Mo          1.27324   
         Mo11      1.0000    0.86157   0.65879   0.06437   Biso      1.000     Mo          1.2848549999999999  
         Mo12      1.0000    0.06777   0.56261   0.99098   Biso      1.000     Mo          1.273499  
         Mo13      1.0000    0.87806   0.35085   0.09446   Biso      1.000     Mo          1.571844  
         Mo14      1.0000    0.69594   0.43539   0.15793   Biso      1.000     Mo          1.600175  
         Mo15      1.0000    0.12194   0.14915   0.59446   Biso      1.000     Mo          1.57084   
         Mo16      1.0000    0.50642   0.50495   0.05926   Biso      1.000     Mo          1.215427  
         Mo17      1.0000    0.86157   0.34121   0.93563   Biso      1.000     Mo          1.284858  
         Mo18      1.0000    0.71618   0.60108   0.13135   Biso      1.000     Mo          1.324924  
         Mo19      1.0000    0.06777   0.43739   0.00902   Biso      1.000     Mo          1.273493  
         Mo20      1.0000    0.87806   0.64915   0.90554   Biso      1.000     Mo          1.571844  
         Mo21      1.0000    0.69594   0.56461   0.84207   Biso      1.000     Mo          1.6001729999999998  
         Mo22      1.0000    0.71618   0.39892   0.86865   Biso      1.000     Mo          1.324927  
         Mo23      1.0000    0.50642   0.49505   0.94074   Biso      1.000     Mo          1.2154200000000002  
         Mo24      1.0000    0.13843   0.84121   0.56437   Biso      1.000     Mo          1.284135  
         O1        1.0000    0.01930   0.61930   0.91960   Biso      1.000     O          -0.802829           
         O2        1.0000    0.13020   0.42620   0.75000   Biso      1.000     O          -0.693854           
         O3        1.0000    0.12170   0.39450   0.84750   Biso      1.000     O          -0.561399           
         O4        1.0000    0.02590   0.35900   0.95440   Biso      1.000     O          -0.674646           
         O5        1.0000    0.04320   0.48940   0.93510   Biso      1.000     O          -0.871085           
         O6        1.0000    0.86460   0.43920   0.00590   Biso      1.000     O          -0.7128439999999999           
         O7        1.0000    0.33830   0.27130   0.60950   Biso      1.000     O          -0.651619           
         O8        1.0000    0.86190   0.69420   0.97760   Biso      1.000     O          -0.7189939999999999           
         O9        1.0000    0.28420   0.99210   0.55810   Biso      1.000     O          -0.719983           
         O10       1.0000    0.85740   0.57010   0.85300   Biso      1.000     O          -1.012712           
         O11       1.0000    0.71780   0.48070   0.81630   Biso      1.000     O          -0.775036           
         O12       1.0000    0.87530   0.41160   0.87410   Biso      1.000     O          -0.873361           
         O13       1.0000    0.70390   0.64720   0.05310   Biso      1.000     O          -0.828953           
         O14       1.0000    0.71580   0.49210   0.94190   Biso      1.000     O          -0.72019  
         O15       1.0000    0.55030   0.42070   0.88040   Biso      1.000     O          -0.652899           
         O16       1.0000    0.55690   0.55510   0.87220   Biso      1.000     O          -0.7233729999999999           
         O17       1.0000    0.47200   0.21030   0.64810   Biso      1.000     O          -0.638365           
         O18       1.0000    0.71820   0.63340   0.90520   Biso      1.000     O          -0.885616           
         O19       1.0000    0.48240   0.30490   0.92640   Biso      1.000     O          -0.670125           
         O20       1.0000    0.12170   0.60550   0.15250   Biso      1.000     O          -0.561399           
         O21       1.0000    0.53120   0.42930   0.00530   Biso      1.000     O          -0.8371149999999999           
         O22       1.0000    0.47200   0.78970   0.35190   Biso      1.000     O          -0.638364           
         O23       1.0000    0.33830   0.72870   0.39050   Biso      1.000     O          -0.651618           
         O24       1.0000    0.13020   0.57380   0.25000   Biso      1.000     O          -0.6938529999999999           
         O25       1.0000    0.53120   0.57070   0.99470   Biso      1.000     O          -0.8371149999999999           
         O26       1.0000    0.02590   0.64100   0.04560   Biso      1.000     O          -0.67464  
         O27       1.0000    0.04320   0.51060   0.06490   Biso      1.000     O          -0.871086           
         O28       1.0000    0.86460   0.56080   0.99410   Biso      1.000     O          -0.712845           
         O29       1.0000    0.01930   0.38070   0.08040   Biso      1.000     O          -0.802829           
         O30       1.0000    0.86190   0.30580   0.02240   Biso      1.000     O          -0.7189939999999999           
         O31       1.0000    0.71820   0.36660   0.09480   Biso      1.000     O          -0.885617           
         O32       1.0000    0.85740   0.42990   0.14700   Biso      1.000     O          -1.012712           
         O33       1.0000    0.71780   0.51930   0.18370   Biso      1.000     O          -0.775036           
         O34       1.0000    0.87530   0.58840   0.12590   Biso      1.000     O          -0.87336  
         O35       1.0000    0.70390   0.35280   0.94690   Biso      1.000     O          -0.8289549999999999           
         O36       1.0000    0.71580   0.50790   0.05810   Biso      1.000     O          -0.72019  
         O37       1.0000    0.55030   0.57930   0.11960   Biso      1.000     O          -0.652891           
         O38       1.0000    0.55690   0.44490   0.12780   Biso      1.000     O          -0.723374           
         O39       1.0000    0.53570   0.21260   0.87650   Biso      1.000     O          -0.607984           
         O40       1.0000    0.46430   0.71260   0.62350   Biso      1.000     O          -0.60831  
         O41       1.0000    0.53570   0.78740   0.12350   Biso      1.000     O          -0.6079829999999999           
         O42       1.0000    0.52800   0.71030   0.85190   Biso      1.000     O          -0.638441           
         O43       1.0000    0.86980   0.07380   0.25000   Biso      1.000     O          -0.694024           
         O44       1.0000    0.87830   0.10550   0.34750   Biso      1.000     O          -0.561198           
         O45       1.0000    0.97410   0.14100   0.45440   Biso      1.000     O          -0.6749430000000001           
         O46       1.0000    0.95680   0.01060   0.43510   Biso      1.000     O          -0.871043           
         O47       1.0000    0.13540   0.06080   0.50590   Biso      1.000     O          -0.712695           
         O48       1.0000    0.98070   0.88070   0.41960   Biso      1.000     O          -0.8029689999999999           
         O49       1.0000    0.13810   0.80580   0.47760   Biso      1.000     O          -0.719115           
         O50       1.0000    0.28180   0.86660   0.40520   Biso      1.000     O          -0.8855940000000001           
         O51       1.0000    0.14260   0.92990   0.35300   Biso      1.000     O          -1.012618           
         O52       1.0000    0.28220   0.01930   0.31630   Biso      1.000     O          -0.775148           
         O53       1.0000    0.12470   0.08840   0.37410   Biso      1.000     O          -0.8733420000000001           
         O54       1.0000    0.29610   0.85280   0.55310   Biso      1.000     O          -0.8289629999999999           
         O55       1.0000    0.28420   0.00790   0.44190   Biso      1.000     O          -0.719983           
         O56       1.0000    0.44970   0.07930   0.38040   Biso      1.000     O          -0.653258           
         O57       1.0000    0.44310   0.94490   0.37220   Biso      1.000     O          -0.7235050000000001           
         O58       1.0000    0.46880   0.92930   0.49470   Biso      1.000     O          -0.8371930000000001           
         O59       1.0000    0.48240   0.69510   0.07360   Biso      1.000     O          -0.670125           
         O60       1.0000    0.66170   0.22870   0.10950   Biso      1.000     O          -0.6516350000000001           
         O61       1.0000    0.51760   0.80490   0.57360   Biso      1.000     O          -0.669983           
         O62       1.0000    0.52800   0.28970   0.14810   Biso      1.000     O          -0.638441           
         O63       1.0000    0.46430   0.28740   0.37650   Biso      1.000     O          -0.608309           
         O64       1.0000    0.66170   0.77130   0.89050   Biso      1.000     O          -0.651634           
         O65       1.0000    0.86980   0.92620   0.75000   Biso      1.000     O          -0.694024           
         O66       1.0000    0.87830   0.89450   0.65250   Biso      1.000     O          -0.561198           
         O67       1.0000    0.97410   0.85900   0.54560   Biso      1.000     O          -0.674944           
         O68       1.0000    0.95680   0.98940   0.56490   Biso      1.000     O          -0.871042           
         O69       1.0000    0.13540   0.93920   0.49410   Biso      1.000     O          -0.712693           
         O70       1.0000    0.98070   0.11930   0.58040   Biso      1.000     O          -0.8029689999999999           
         O71       1.0000    0.13810   0.19420   0.52240   Biso      1.000     O          -0.719115           
         O72       1.0000    0.28180   0.13340   0.59480   Biso      1.000     O          -0.885595           
         O73       1.0000    0.14260   0.07010   0.64700   Biso      1.000     O          -1.012617           
         O74       1.0000    0.28220   0.98070   0.68370   Biso      1.000     O          -0.775148           
         O75       1.0000    0.12470   0.91160   0.62590   Biso      1.000     O          -0.87334  
         O76       1.0000    0.29610   0.14720   0.44690   Biso      1.000     O          -0.8289639999999999           
         O77       1.0000    0.44970   0.92070   0.61960   Biso      1.000     O          -0.6532640000000001           
         O78       1.0000    0.44310   0.05510   0.62780   Biso      1.000     O          -0.7235060000000001           
         O79       1.0000    0.46880   0.07070   0.50530   Biso      1.000     O          -0.8371930000000001           
         O80       1.0000    0.51760   0.19510   0.42640   Biso      1.000     O          -0.669983           
         P1        1.0000    0.78950   0.50000   0.00000   Biso      1.000     P          1.592118  
         P2        1.0000    0.21050   0.00000   0.50000   Biso      1.000     P          1.5919940000000001 