
##########################################################################
#               Crystallographic Information Format file
#               Produced by PyCifRW module
#
#  This is a CIF file.  CIF has been adopted by the International
#  Union of Crystallography as the standard for data archiving and
#  transmission.
#
#  For information on this file format, follow the CIF links at
#  http://www.iucr.org
##########################################################################

data_image0

_cell_length_a                          12.3192
_cell_length_b                          12.3654
_cell_length_c                          25.1114
_cell_angle_alpha                       81.897
_cell_angle_beta                        85.389
_cell_angle_gamma                       88.564
_symmetry_space_group_name_H-M          'P 1'
_symmetry_int_tables_number             1
loop_
  _symmetry_equiv_pos_as_xyz
         'x, y, z' 
loop_
  _atom_site_label
  _atom_site_occupancy
  _atom_site_fract_x
  _atom_site_fract_y
  _atom_site_fract_z
  _atom_site_thermal_displace_type
  _atom_site_B_iso_or_equiv
  _atom_site_type_symbol
  _atom_site_charge
         C1        1.0000    0.55180   0.40090   0.51930   Biso      1.000     C          -0.034158           
         C2        1.0000    0.83820   0.42230   0.93660   Biso      1.000     C          0.621074  
         C3        1.0000    0.92230   0.46430   0.97110   Biso      1.000     C          -0.03342  
         C4        1.0000    0.92400   0.57520   0.97690   Biso      1.000     C          -0.055797           
         C5        1.0000    0.99470   0.39020   0.99440   Biso      1.000     C          -0.151323           
         C6        1.0000    0.83940   0.65990   0.95290   Biso      1.000     C          0.639829  
         C7        1.0000    0.44090   0.40330   0.51170   Biso      1.000     C          -0.053841           
         C8        1.0000    0.61210   0.49830   0.50770   Biso      1.000     C          -0.160501           
         C9        1.0000    0.61140   0.29820   0.54010   Biso      1.000     C          0.625536  
         C10       1.0000    0.16180   0.57770   0.06340   Biso      1.000     C          0.621013  
         C11       1.0000    0.37070   0.29950   0.52130   Biso      1.000     C          0.629313  
         C12       1.0000    0.07600   0.42480   0.02310   Biso      1.000     C          -0.055723           
         C13       1.0000    0.00530   0.60980   0.00560   Biso      1.000     C          -0.151293           
         C14       1.0000    0.16060   0.34010   0.04710   Biso      1.000     C          0.63977   
         C15       1.0000    0.55910   0.59670   0.48830   Biso      1.000     C          -0.053767999999999996         
         C16       1.0000    0.38790   0.50170   0.49230   Biso      1.000     C          -0.160469           
         C17       1.0000    0.44820   0.59910   0.48070   Biso      1.000     C          -0.034035           
         C18       1.0000    0.38860   0.70180   0.45990   Biso      1.000     C          0.625482  
         C19       1.0000    0.62930   0.70050   0.47870   Biso      1.000     C          0.629266  
         C20       1.0000    0.07770   0.53570   0.02890   Biso      1.000     C          -0.033295           
         H1        1.0000    0.68610   0.49750   0.51280   Biso      1.000     H          0.126708  
         H2        1.0000    0.31390   0.50250   0.48720   Biso      1.000     H          0.126726  
         H3        1.0000    0.01040   0.68340   0.00910   Biso      1.000     H          0.12222100000000001           
         H4        1.0000    0.98960   0.31660   0.99090   Biso      1.000     H          0.12220999999999999           
         La1       1.0000    0.72324   0.09475   0.58525   Biso      1.000     La          2.053289  
         La2       1.0000    0.99376   0.81801   0.83910   Biso      1.000     La          2.02848   
         La3       1.0000    0.69951   0.32924   0.86288   Biso      1.000     La          2.045146  
         La4       1.0000    0.21774   0.34064   0.64981   Biso      1.000     La          2.0217    
         La5       1.0000    0.27676   0.90525   0.41475   Biso      1.000     La          2.0528009999999997  
         La6       1.0000    0.00624   0.18199   0.16090   Biso      1.000     La          2.028168  
         La7       1.0000    0.30049   0.67076   0.13712   Biso      1.000     La          2.044834  
         La8       1.0000    0.78226   0.65936   0.35019   Biso      1.000     La          2.021356  
         Mo1       1.0000    0.25758   0.99352   0.14084   Biso      1.000     Mo          1.542079  
         Mo2       1.0000    0.37934   0.85521   0.24966   Biso      1.000     Mo          1.20048   
         Mo3       1.0000    0.93590   0.89841   0.67143   Biso      1.000     Mo          1.223842  
         Mo4       1.0000    0.04261   0.12866   0.59284   Biso      1.000     Mo          1.520889  
         Mo5       1.0000    0.76117   0.89498   0.73848   Biso      1.000     Mo          1.262157  
         Mo6       1.0000    0.62066   0.14479   0.75034   Biso      1.000     Mo          1.200531  
         Mo7       1.0000    0.74242   0.00648   0.85916   Biso      1.000     Mo          1.542645  
         Mo8       1.0000    0.95009   0.12098   0.88913   Biso      1.000     Mo          1.523324  
         Mo9       1.0000    0.17019   0.10396   0.79558   Biso      1.000     Mo          1.2723799999999998  
         Mo10      1.0000    0.17012   0.01877   0.70703   Biso      1.000     Mo          1.236323  
         Mo11      1.0000    0.92603   0.44255   0.72249   Biso      1.000     Mo          1.2327299999999999  
         Mo12      1.0000    0.04991   0.87902   0.11087   Biso      1.000     Mo          1.522521  
         Mo13      1.0000    0.02650   0.35394   0.80344   Biso      1.000     Mo          1.20225   
         Mo14      1.0000    0.97350   0.64606   0.19656   Biso      1.000     Mo          1.201957  
         Mo15      1.0000    0.07397   0.55745   0.27751   Biso      1.000     Mo          1.232666  
         Mo16      1.0000    0.31457   0.67649   0.30801   Biso      1.000     Mo          1.177707  
         Mo17      1.0000    0.08915   0.65185   0.39910   Biso      1.000     Mo          1.5189489999999999  
         Mo18      1.0000    0.23883   0.10502   0.26152   Biso      1.000     Mo          1.262003  
         Mo19      1.0000    0.82981   0.89604   0.20442   Biso      1.000     Mo          1.2722440000000002  
         Mo20      1.0000    0.95739   0.87134   0.40716   Biso      1.000     Mo          1.520043  
         Mo21      1.0000    0.06410   0.10159   0.32857   Biso      1.000     Mo          1.2235639999999999  
         Mo22      1.0000    0.91085   0.34815   0.60090   Biso      1.000     Mo          1.519815  
         Mo23      1.0000    0.68543   0.32351   0.69199   Biso      1.000     Mo          1.177967  
         Mo24      1.0000    0.82988   0.98123   0.29297   Biso      1.000     Mo          1.236237  
         O1        1.0000    0.20490   0.03150   0.33380   Biso      1.000     O          -0.894651           
         O2        1.0000    0.32240   0.72090   0.22850   Biso      1.000     O          -0.937908           
         O3        1.0000    0.32580   0.82640   0.32530   Biso      1.000     O          -0.8372959999999999           
         O4        1.0000    0.19160   0.91560   0.23950   Biso      1.000     O          -0.699866           
         O5        1.0000    0.25220   0.10980   0.18100   Biso      1.000     O          -0.7638199999999999           
         O6        1.0000    0.37930   0.01790   0.26040   Biso      1.000     O          -0.758059           
         O7        1.0000    0.81160   0.82950   0.27960   Biso      1.000     O          -0.9194459999999999           
         O8        1.0000    0.89230   0.03100   0.21970   Biso      1.000     O          -0.918743           
         O9        1.0000    0.83560   0.91330   0.37180   Biso      1.000     O          -0.735171           
         O10       1.0000    0.10620   0.80720   0.40680   Biso      1.000     O          -0.938947           
         O11       1.0000    0.01950   0.91580   0.30280   Biso      1.000     O          -0.705637           
         O12       1.0000    0.02200   0.00480   0.39920   Biso      1.000     O          -0.804583           
         O13       1.0000    0.90350   0.10700   0.31760   Biso      1.000     O          -0.764617           
         O14       1.0000    0.37060   0.91910   0.16970   Biso      1.000     O          -0.768308           
         O15       1.0000    0.08600   0.13470   0.24990   Biso      1.000     O          -0.9100389999999999           
         O16       1.0000    0.94490   0.72350   0.38730   Biso      1.000     O          -0.934307           
         O17       1.0000    0.09930   0.01830   0.13410   Biso      1.000     O          -0.9217850000000001           
         O18       1.0000    0.25570   0.35820   0.03490   Biso      1.000     O          -0.526342           
         O19       1.0000    0.02500   0.73220   0.12480   Biso      1.000     O          -0.689116           
         O20       1.0000    0.20270   0.66620   0.04850   Biso      1.000     O          -0.631156           
         O21       1.0000    0.18130   0.52260   0.10930   Biso      1.000     O          -0.671982           
         O22       1.0000    0.39960   0.22310   0.49390   Biso      1.000     O          -0.584842           
         O23       1.0000    0.12030   0.25460   0.07700   Biso      1.000     O          -0.756443           
         O24       1.0000    0.43750   0.76670   0.42180   Biso      1.000     O          -0.670586           
         O25       1.0000    0.29830   0.71900   0.47960   Biso      1.000     O          -0.625143           
         O26       1.0000    0.23320   0.64430   0.38030   Biso      1.000     O          -0.681063           
         O27       1.0000    0.12450   0.73820   0.29520   Biso      1.000     O          -0.687067           
         O28       1.0000    0.23660   0.53710   0.29230   Biso      1.000     O          -0.763771           
         O29       1.0000    0.04840   0.55140   0.35800   Biso      1.000     O          -0.776388           
         O30       1.0000    0.93130   0.62690   0.27420   Biso      1.000     O          -0.9079649999999999           
         O31       1.0000    0.12610   0.61940   0.20580   Biso      1.000     O          -0.80574  
         O32       1.0000    0.83220   0.73800   0.18810   Biso      1.000     O          -0.7761279999999999           
         O33       1.0000    0.01860   0.82800   0.21720   Biso      1.000     O          -0.690655           
         O34       1.0000    0.91100   0.92730   0.13110   Biso      1.000     O          -0.770754           
         O35       1.0000    0.20190   0.85000   0.12760   Biso      1.000     O          -0.9561200000000001           
         O36       1.0000    0.29050   0.29940   0.55630   Biso      1.000     O          -0.725333           
         O37       1.0000    0.89380   0.19280   0.59320   Biso      1.000     O          -0.9390629999999999           
         O38       1.0000    0.81870   0.47740   0.89070   Biso      1.000     O          -0.6721199999999999           
         O39       1.0000    0.67420   0.17360   0.67470   Biso      1.000     O          -0.837306           
         O40       1.0000    0.80840   0.08440   0.76050   Biso      1.000     O          -0.699891           
         O41       1.0000    0.74780   0.89020   0.81900   Biso      1.000     O          -0.763824           
         O42       1.0000    0.62070   0.98210   0.73960   Biso      1.000     O          -0.757939           
         O43       1.0000    0.18840   0.17050   0.72040   Biso      1.000     O          -0.919492           
         O44       1.0000    0.10770   0.96900   0.78030   Biso      1.000     O          -0.9187569999999999           
         O45       1.0000    0.79730   0.33380   0.95150   Biso      1.000     O          -0.6310399999999999           
         O46       1.0000    0.05510   0.27650   0.61270   Biso      1.000     O          -0.93442  
         O47       1.0000    0.16440   0.08670   0.62820   Biso      1.000     O          -0.735136           
         O48       1.0000    0.98050   0.08420   0.69720   Biso      1.000     O          -0.705689           
         O49       1.0000    0.97800   0.99520   0.60080   Biso      1.000     O          -0.80443  
         O50       1.0000    0.09650   0.89300   0.68240   Biso      1.000     O          -0.764428           
         O51       1.0000    0.79510   0.96850   0.66620   Biso      1.000     O          -0.8946780000000001           
         O52       1.0000    0.91400   0.86530   0.75010   Biso      1.000     O          -0.9101360000000001           
         O53       1.0000    0.70950   0.70060   0.44370   Biso      1.000     O          -0.72521  
         O54       1.0000    0.62940   0.08090   0.83030   Biso      1.000     O          -0.76827  
         O55       1.0000    0.67760   0.27910   0.77150   Biso      1.000     O          -0.937949           
         O56       1.0000    0.79810   0.15000   0.87240   Biso      1.000     O          -0.956201           
         O57       1.0000    0.74430   0.64180   0.96510   Biso      1.000     O          -0.5262180000000001           
         O58       1.0000    0.87970   0.74540   0.92300   Biso      1.000     O          -0.756522           
         O59       1.0000    0.56250   0.23330   0.57820   Biso      1.000     O          -0.6707310000000001           
         O60       1.0000    0.70170   0.28100   0.52040   Biso      1.000     O          -0.625003           
         O61       1.0000    0.76680   0.35570   0.61970   Biso      1.000     O          -0.681036           
         O62       1.0000    0.90070   0.98170   0.86590   Biso      1.000     O          -0.9218559999999999           
         O63       1.0000    0.76340   0.46290   0.70770   Biso      1.000     O          -0.7636689999999999           
         O64       1.0000    0.87550   0.26180   0.70480   Biso      1.000     O          -0.687099           
         O65       1.0000    0.06870   0.37310   0.72580   Biso      1.000     O          -0.9080090000000001           
         O66       1.0000    0.87390   0.38060   0.79420   Biso      1.000     O          -0.805736           
         O67       1.0000    0.16780   0.26200   0.81190   Biso      1.000     O          -0.775989           
         O68       1.0000    0.98140   0.17200   0.78280   Biso      1.000     O          -0.6906979999999999           
         O69       1.0000    0.08900   0.07270   0.86890   Biso      1.000     O          -0.7706310000000001           
         O70       1.0000    0.97500   0.26780   0.87520   Biso      1.000     O          -0.689068           
         O71       1.0000    0.95160   0.44860   0.64200   Biso      1.000     O          -0.7763140000000001           
         O72       1.0000    0.60040   0.77690   0.50610   Biso      1.000     O          -0.585102           
         P1        1.0000    0.08829   0.84908   0.26466   Biso      1.000     P          1.5734    
         P2        1.0000    0.91171   0.15092   0.73534   Biso      1.000     P          1.573433 