
##########################################################################
#               Crystallographic Information Format file
#               Produced by PyCifRW module
#
#  This is a CIF file.  CIF has been adopted by the International
#  Union of Crystallography as the standard for data archiving and
#  transmission.
#
#  For information on this file format, follow the CIF links at
#  http://www.iucr.org
##########################################################################

data_image0

_cell_length_a                          8.7999
_cell_length_b                          10.8475
_cell_length_c                          16.8132
_cell_angle_alpha                       76.6
_cell_angle_beta                        82.105
_cell_angle_gamma                       90.135
_symmetry_space_group_name_H-M          'P 1'
_symmetry_int_tables_number             1
loop_
  _symmetry_equiv_pos_as_xyz
         'x, y, z' 
loop_
  _atom_site_label
  _atom_site_occupancy
  _atom_site_fract_x
  _atom_site_fract_y
  _atom_site_fract_z
  _atom_site_thermal_displace_type
  _atom_site_B_iso_or_equiv
  _atom_site_type_symbol
  _atom_site_charge
         C1        1.0000    0.10080   0.67780   0.40550   Biso      1.000     C          0.608816  
         C2        1.0000    0.43380   0.11480   0.89470   Biso      1.000     C          -0.094162           
         C3        1.0000    0.51900   0.18380   0.93260   Biso      1.000     C          -0.125779           
         C4        1.0000    0.65970   0.23740   0.89160   Biso      1.000     C          0.082372  
         C5        1.0000    0.01580   0.09660   0.88680   Biso      1.000     C          0.606841  
         C6        1.0000    0.01300   0.99180   0.96230   Biso      1.000     C          -0.199526           
         C7        1.0000    0.14720   0.62000   0.92400   Biso      1.000     C          0.627994  
         C8        1.0000    0.03910   0.55170   0.99790   Biso      1.000     C          -0.195989           
         C9        1.0000    0.24330   0.75190   0.59680   Biso      1.000     C          0.630245  
         C10       1.0000    0.20590   0.76000   0.51200   Biso      1.000     C          -0.191782           
         C11       1.0000    0.13800   0.66920   0.49060   Biso      1.000     C          -0.185112           
         C12       1.0000    0.69710   0.60640   0.24690   Biso      1.000     C          0.017401  
         C13       1.0000    0.55090   0.55300   0.27490   Biso      1.000     C          0.067421  
         C14       1.0000    0.48480   0.56090   0.35220   Biso      1.000     C          -0.093705           
         C15       1.0000    0.56280   0.62060   0.39800   Biso      1.000     C          -0.115721           
         C16       1.0000    0.70640   0.66990   0.36710   Biso      1.000     C          0.089916  
         C17       1.0000    0.47080   0.48920   0.21920   Biso      1.000     C          -0.120468           
         C18       1.0000    0.39290   0.28730   0.19460   Biso      1.000     C          -0.062496           
         C19       1.0000    0.86200   0.33080   0.50940   Biso      1.000     C          -0.185165           
         C20       1.0000    0.79410   0.24000   0.48800   Biso      1.000     C          -0.191728           
         C21       1.0000    0.75670   0.24810   0.40320   Biso      1.000     C          0.630238  
         C22       1.0000    0.96090   0.44830   0.00210   Biso      1.000     C          -0.195935           
         C23       1.0000    0.85280   0.38000   0.07600   Biso      1.000     C          0.627989  
         C24       1.0000    0.98700   0.00820   0.03770   Biso      1.000     C          -0.199479           
         C25       1.0000    0.48850   0.10260   0.81440   Biso      1.000     C          0.065198  
         C26       1.0000    0.98420   0.90340   0.11320   Biso      1.000     C          0.606836  
         C27       1.0000    0.48100   0.81620   0.06740   Biso      1.000     C          -0.125788           
         C28       1.0000    0.56620   0.88520   0.10530   Biso      1.000     C          -0.094154           
         C29       1.0000    0.51150   0.89740   0.18560   Biso      1.000     C          0.065197  
         C30       1.0000    0.37340   0.83910   0.22140   Biso      1.000     C          0.007001  
         C31       1.0000    0.59640   0.97780   0.22850   Biso      1.000     C          -0.1247   
         C32       1.0000    0.40860   0.14720   0.21660   Biso      1.000     C          -0.071285           
         C33       1.0000    0.34030   0.76260   0.10840   Biso      1.000     C          0.082373  
         C34       1.0000    0.62660   0.16090   0.77860   Biso      1.000     C          0.007001  
         C35       1.0000    0.89920   0.32220   0.59450   Biso      1.000     C          0.608821  
         C36       1.0000    0.40360   0.02220   0.77150   Biso      1.000     C          -0.1247   
         C37       1.0000    0.43720   0.37940   0.60200   Biso      1.000     C          -0.115731           
         C38       1.0000    0.51520   0.43910   0.64780   Biso      1.000     C          -0.093698           
         C39       1.0000    0.59140   0.85280   0.78340   Biso      1.000     C          -0.071285           
         C40       1.0000    0.44910   0.44700   0.72510   Biso      1.000     C          0.067421  
         C41       1.0000    0.52920   0.51080   0.78080   Biso      1.000     C          -0.120469           
         C42       1.0000    0.29360   0.33010   0.63290   Biso      1.000     C          0.089917  
         C43       1.0000    0.60710   0.71270   0.80540   Biso      1.000     C          -0.062496           
         C44       1.0000    0.30290   0.39360   0.75310   Biso      1.000     C          0.017403  
         Cd1       1.0000    0.27796   0.73983   0.75806   Biso      1.000     Cd          0.850846  
         Cd2       1.0000    0.96744   0.28609   0.75479   Biso      1.000     Cd          0.842427  
         Cd3       1.0000    0.72204   0.26017   0.24194   Biso      1.000     Cd          0.850847  
         Cd4       1.0000    0.03256   0.71391   0.24521   Biso      1.000     Cd          0.842428  
         H1        1.0000    0.51950   0.51840   0.16250   Biso      1.000     H          0.110646  
         H2        1.0000    0.25720   0.39740   0.80570   Biso      1.000     H          0.1044    
         H3        1.0000    0.51790   0.62750   0.45010   Biso      1.000     H          0.120679  
         H4        1.0000    0.38700   0.52560   0.37340   Biso      1.000     H          0.124128  
         H5        1.0000    0.61300   0.47440   0.62660   Biso      1.000     H          0.124128  
         H6        1.0000    0.75880   0.70970   0.39910   Biso      1.000     H          0.104408  
         H7        1.0000    0.36430   0.51280   0.22190   Biso      1.000     H          0.098742  
         H8        1.0000    0.39900   0.86500   0.85060   Biso      1.000     H          0.266171  
         H9        1.0000    0.43140   0.32010   0.13660   Biso      1.000     H          0.10649   
         H10       1.0000    0.34900   0.10860   0.18370   Biso      1.000     H          0.102161  
         H11       1.0000    0.36810   0.11410   0.27430   Biso      1.000     H          0.119199  
         H12       1.0000    0.70550   0.96420   0.21790   Biso      1.000     H          0.123812  
         H13       1.0000    0.56440   0.95050   0.28760   Biso      1.000     H          0.121096  
         H14       1.0000    0.55400   0.66900   0.70330   Biso      1.000     H          0.278727  
         H15       1.0000    0.33650   0.84560   0.27480   Biso      1.000     H          0.103748  
         H16       1.0000    0.65950   0.92370   0.07810   Biso      1.000     H          0.121628  
         H17       1.0000    0.51710   0.80550   0.01490   Biso      1.000     H          0.125241  
         H18       1.0000    0.28150   0.71810   0.08170   Biso      1.000     H          0.098176  
         H19       1.0000    0.96940   0.08980   0.04460   Biso      1.000     H          0.134051  
         H20       1.0000    0.97280   0.41410   0.95590   Biso      1.000     H          0.131788  
         H21       1.0000    0.76720   0.16530   0.52780   Biso      1.000     H          0.131028  
         H22       1.0000    0.28520   0.30680   0.20340   Biso      1.000     H          0.108214  
         H23       1.0000    0.60100   0.13500   0.14940   Biso      1.000     H          0.266171  
         H24       1.0000    0.29450   0.03580   0.78210   Biso      1.000     H          0.123812  
         H25       1.0000    0.44600   0.33100   0.29670   Biso      1.000     H          0.278726  
         H26       1.0000    0.43560   0.04950   0.71240   Biso      1.000     H          0.121096  
         H27       1.0000    0.63190   0.88590   0.72570   Biso      1.000     H          0.119198  
         H28       1.0000    0.66350   0.15440   0.72520   Biso      1.000     H          0.103748  
         H29       1.0000    0.65100   0.89140   0.81630   Biso      1.000     H          0.102161  
         H30       1.0000    0.34050   0.07630   0.92190   Biso      1.000     H          0.121629  
         H31       1.0000    0.56860   0.67990   0.86340   Biso      1.000     H          0.10649   
         H32       1.0000    0.48290   0.19450   0.98510   Biso      1.000     H          0.125241  
         H33       1.0000    0.71480   0.69320   0.79660   Biso      1.000     H          0.108213  
         H34       1.0000    0.71850   0.28190   0.91830   Biso      1.000     H          0.098176  
         H35       1.0000    0.63570   0.48720   0.77810   Biso      1.000     H          0.098743  
         H36       1.0000    0.48050   0.48160   0.83750   Biso      1.000     H          0.110646  
         H37       1.0000    0.02720   0.58590   0.04410   Biso      1.000     H          0.131792  
         H38       1.0000    0.24120   0.29030   0.60090   Biso      1.000     H          0.104408  
         H39       1.0000    0.23280   0.83470   0.47220   Biso      1.000     H          0.131031  
         H40       1.0000    0.03060   0.91020   0.95540   Biso      1.000     H          0.134054  
         H41       1.0000    0.74280   0.60260   0.19430   Biso      1.000     H          0.1044    
         H42       1.0000    0.11080   0.59450   0.53040   Biso      1.000     H          0.135583  
         H43       1.0000    0.88920   0.40550   0.46960   Biso      1.000     H          0.135587  
         H44       1.0000    0.48210   0.37250   0.54990   Biso      1.000     H          0.12068   
         N1        1.0000    0.28650   0.77250   0.18450   Biso      1.000     N          -0.214536           
         N2        1.0000    0.47830   0.34970   0.24490   Biso      1.000     N          -0.361345           
         N3        1.0000    0.77580   0.66330   0.29190   Biso      1.000     N          -0.200015           
         N4        1.0000    0.22420   0.33670   0.70810   Biso      1.000     N          -0.200015           
         N5        1.0000    0.52170   0.65030   0.75510   Biso      1.000     N          -0.361345           
         N6        1.0000    0.71350   0.22750   0.81550   Biso      1.000     N          -0.214536           
         N7        1.0000    0.42970   0.88660   0.79810   Biso      1.000     N          -0.341275           
         N8        1.0000    0.57030   0.11340   0.20190   Biso      1.000     N          -0.341275           
         O1        1.0000    0.85550   0.41190   0.14300   Biso      1.000     O          -0.574609           
         O2        1.0000    0.97810   0.79010   0.10810   Biso      1.000     O          -0.577338           
         O3        1.0000    0.02190   0.20990   0.89190   Biso      1.000     O          -0.577339           
         O4        1.0000    0.00680   0.06680   0.82020   Biso      1.000     O          -0.58303  
         O5        1.0000    0.14450   0.58810   0.85700   Biso      1.000     O          -0.574609           
         O6        1.0000    0.23210   0.70660   0.93120   Biso      1.000     O          -0.602966           
         O7        1.0000    0.92290   0.21400   0.63830   Biso      1.000     O          -0.579219           
         O8        1.0000    0.17820   0.66980   0.65500   Biso      1.000     O          -0.566162           
         O9        1.0000    0.33920   0.82960   0.60700   Biso      1.000     O          -0.608033           
         O10       1.0000    0.90730   0.42080   0.61950   Biso      1.000     O          -0.577392           
         O11       1.0000    0.09270   0.57920   0.38050   Biso      1.000     O          -0.577392           
         O12       1.0000    0.99320   0.93320   0.17980   Biso      1.000     O          -0.583031           
         O13       1.0000    0.07710   0.78600   0.36170   Biso      1.000     O          -0.579218           
         O14       1.0000    0.82180   0.33020   0.34500   Biso      1.000     O          -0.566161           
         O15       1.0000    0.76790   0.29340   0.06880   Biso      1.000     O          -0.602967           
         O16       1.0000    0.66080   0.17040   0.39300   Biso      1.000     O          -0.608033 