
##########################################################################
#               Crystallographic Information Format file
#               Produced by PyCifRW module
#
#  This is a CIF file.  CIF has been adopted by the International
#  Union of Crystallography as the standard for data archiving and
#  transmission.
#
#  For information on this file format, follow the CIF links at
#  http://www.iucr.org
##########################################################################

data_image0

_cell_length_a                          8.6631
_cell_length_b                          14.2422
_cell_length_c                          14.5497
_cell_angle_alpha                       113.513
_cell_angle_beta                        107.32
_cell_angle_gamma                       90
_symmetry_space_group_name_H-M          'P 1'
_symmetry_int_tables_number             1
loop_
  _symmetry_equiv_pos_as_xyz
         'x, y, z' 
loop_
  _atom_site_label
  _atom_site_occupancy
  _atom_site_fract_x
  _atom_site_fract_y
  _atom_site_fract_z
  _atom_site_thermal_displace_type
  _atom_site_B_iso_or_equiv
  _atom_site_type_symbol
  _atom_site_charge
         C1        1.0000    0.76098   0.82820   0.39576   Biso      1.000     C          0.614475  
         C2        1.0000    0.92490   0.71240   0.46760   Biso      1.000     C          -0.092934           
         C3        1.0000    0.80158   0.72360   0.38816   Biso      1.000     C          -0.02532  
         C4        1.0000    0.70289   0.63550   0.30498   Biso      1.000     C          -0.089616           
         C5        1.0000    0.72200   0.53790   0.30360   Biso      1.000     C          -0.152066           
         C6        1.0000    0.83030   0.39700   0.91060   Biso      1.000     C          -0.153356           
         C7        1.0000    0.17835   0.83880   0.32530   Biso      1.000     C          0.66289   
         C8        1.0000    0.12640   0.73850   0.22900   Biso      1.000     C          -0.030068           
         C9        1.0000    0.24290   0.68600   0.19040   Biso      1.000     C          -0.10863099999999999          
         C10       1.0000    0.19650   0.59230   0.10040   Biso      1.000     C          -0.159303           
         C11       1.0000    0.03370   0.55050   0.04660   Biso      1.000     C          0.080154  
         C12       1.0000    0.91970   0.60300   0.08940   Biso      1.000     C          -0.155691           
         C13       1.0000    0.96550   0.69660   0.17920   Biso      1.000     C          -0.092315           
         C14       1.0000    0.44966   0.86150   0.57212   Biso      1.000     C          0.680813  
         C15       1.0000    0.45618   0.76260   0.58636   Biso      1.000     C          -0.032087           
         C16       1.0000    0.55640   0.69180   0.54600   Biso      1.000     C          -0.09145700000000001          
         C17       1.0000    0.55650   0.59820   0.55540   Biso      1.000     C          -0.148062           
         C18       1.0000    0.45987   0.57420   0.60674   Biso      1.000     C          0.071538  
         C19       1.0000    0.36550   0.64780   0.64980   Biso      1.000     C          -0.15416400000000002          
         C20       1.0000    0.36148   0.74070   0.63916   Biso      1.000     C          -0.10221000000000001          
         C21       1.0000    0.45340   0.47260   0.61320   Biso      1.000     C          0.083261  
         C22       1.0000    0.47700   0.38410   0.53260   Biso      1.000     C          -0.138749           
         C23       1.0000    0.45730   0.28760   0.53240   Biso      1.000     C          -0.092223           
         C24       1.0000    0.41342   0.27640   0.61184   Biso      1.000     C          -0.025963999999999997         
         C25       1.0000    0.39791   0.36450   0.69502   Biso      1.000     C          -0.08904400000000001          
         C26       1.0000    0.41840   0.46210   0.69640   Biso      1.000     C          -0.15063  
         C27       1.0000    0.36522   0.17180   0.60424   Biso      1.000     C          0.6155229999999999  
         C28       1.0000    0.85305   0.16120   0.67470   Biso      1.000     C          0.664393  
         C29       1.0000    0.89740   0.26150   0.77100   Biso      1.000     C          -0.030593000000000002         
         C30       1.0000    0.05250   0.31400   0.80960   Biso      1.000     C          -0.097238           
         C31       1.0000    0.94440   0.61590   0.46740   Biso      1.000     C          -0.138052           
         C32       1.0000    0.84020   0.52740   0.38680   Biso      1.000     C          0.083103  
         C33       1.0000    0.72232   0.25930   0.36084   Biso      1.000     C          -0.10264200000000001          
         C34       1.0000    0.71570   0.35220   0.35020   Biso      1.000     C          -0.154728           
         C35       1.0000    0.78630   0.30340   0.82080   Biso      1.000     C          -0.09427200000000001          
         C36       1.0000    0.09610   0.40770   0.89960   Biso      1.000     C          -0.15771500000000002          
         C37       1.0000    0.87754   0.13850   0.42788   Biso      1.000     C          0.68308   
         C38       1.0000    0.98710   0.44950   0.95340   Biso      1.000     C          0.078355  
         C39       1.0000    0.01040   0.30820   0.45400   Biso      1.000     C          -0.092275           
         C40       1.0000    0.85313   0.42580   0.39326   Biso      1.000     C          0.070264  
         C41       1.0000    0.00110   0.40180   0.44460   Biso      1.000     C          -0.146315           
         C42       1.0000    0.86982   0.23740   0.41364   Biso      1.000     C          -0.032193           
         H1        1.0000    0.11030   0.29280   0.48700   Biso      1.000     H          0.11059000000000001           
         H2        1.0000    0.09510   0.44910   0.47320   Biso      1.000     H          0.10961800000000001           
         H3        1.0000    0.61690   0.36550   0.31340   Biso      1.000     H          0.113202  
         H4        1.0000    0.62830   0.21210   0.33280   Biso      1.000     H          0.11603699999999999           
         H5        1.0000    0.02770   0.60960   0.52140   Biso      1.000     H          0.110574  
         H6        1.0000    0.99530   0.77020   0.52160   Biso      1.000     H          0.096241  
         H7        1.0000    0.62290   0.64200   0.24960   Biso      1.000     H          0.12066400000000001           
         H8        1.0000    0.65590   0.47980   0.24700   Biso      1.000     H          0.119199  
         H9        1.0000    0.35260   0.71290   0.22440   Biso      1.000     H          0.132163  
         H10       1.0000    0.27660   0.55720   0.07580   Biso      1.000     H          0.1093    
         H11       1.0000    0.88610   0.73090   0.20540   Biso      1.000     H          0.11668599999999998           
         H12       1.0000    0.62330   0.70720   0.51300   Biso      1.000     H          0.110499  
         H13       1.0000    0.30350   0.63450   0.68660   Biso      1.000     H          0.112353  
         H14       1.0000    0.29550   0.78790   0.66720   Biso      1.000     H          0.115326  
         H15       1.0000    0.50630   0.39040   0.47860   Biso      1.000     H          0.110749  
         H16       1.0000    0.47370   0.22980   0.47840   Biso      1.000     H          0.09628300000000001           
         H17       1.0000    0.37330   0.35800   0.75040   Biso      1.000     H          0.11975899999999999           
         H18       1.0000    0.40890   0.52020   0.75300   Biso      1.000     H          0.11827599999999999           
         H19       1.0000    0.12820   0.28710   0.77560   Biso      1.000     H          0.119325  
         H20       1.0000    0.20080   0.44280   0.92420   Biso      1.000     H          0.109008  
         H21       1.0000    0.75270   0.42470   0.94260   Biso      1.000     H          0.11040799999999999           
         H22       1.0000    0.68070   0.26910   0.79460   Biso      1.000     H          0.117595  
         H23       1.0000    0.81010   0.57530   0.05740   Biso      1.000     H          0.111502  
         H24       1.0000    0.62190   0.55090   0.52680   Biso      1.000     H          0.110017  
         Nd1       1.0000    0.11549   0.00502   0.54716   Biso      1.000     Nd          2.144747  
         Nd2       1.0000    0.56833   0.99498   0.45284   Biso      1.000     Nd          2.145162  
         O1        1.0000    0.01385   0.10810   0.44950   Biso      1.000     O          -0.637849           
         O2        1.0000    0.74555   0.09320   0.41790   Biso      1.000     O          -0.74128  
         O3        1.0000    0.84184   0.90910   0.47908   Biso      1.000     O          -0.77793  
         O4        1.0000    0.64095   0.83530   0.32710   Biso      1.000     O          -0.605114           
         O5        1.0000    0.07418   0.87790   0.36936   Biso      1.000     O          -0.658192           
         O6        1.0000    0.32473   0.87760   0.35786   Biso      1.000     O          -0.712237           
         O7        1.0000    0.56435   0.89190   0.55050   Biso      1.000     O          -0.6368090000000001           
         O8        1.0000    0.32765   0.90680   0.58210   Biso      1.000     O          -0.740054           
         O9        1.0000    0.36276   0.09090   0.52092   Biso      1.000     O          -0.778047           
         O10       1.0000    0.31385   0.16470   0.67290   Biso      1.000     O          -0.605114           
         O11       1.0000    0.70482   0.12210   0.63064   Biso      1.000     O          -0.659834           
         O12       1.0000    0.96687   0.12240   0.64214   Biso      1.000     O          -0.710762 