
##########################################################################
#               Crystallographic Information Format file
#               Produced by PyCifRW module
#
#  This is a CIF file.  CIF has been adopted by the International
#  Union of Crystallography as the standard for data archiving and
#  transmission.
#
#  For information on this file format, follow the CIF links at
#  http://www.iucr.org
##########################################################################

data_image0

_cell_length_a                          6.672
_cell_length_b                          16.936
_cell_length_c                          12.807
_cell_angle_alpha                       90
_cell_angle_beta                        90
_cell_angle_gamma                       90
_symmetry_space_group_name_H-M          'P 1'
_symmetry_int_tables_number             1
loop_
  _symmetry_equiv_pos_as_xyz
         'x, y, z' 
loop_
  _atom_site_label
  _atom_site_occupancy
  _atom_site_fract_x
  _atom_site_fract_y
  _atom_site_fract_z
  _atom_site_thermal_displace_type
  _atom_site_B_iso_or_equiv
  _atom_site_type_symbol
  _atom_site_charge
         Al1       1.0000    0.25360   0.25233   0.75064   Biso      1.000     Al          1.7246759999999999  
         Al2       1.0000    0.25350   0.75232   0.25059   Biso      1.000     Al          1.7238209999999998  
         Al3       1.0000    0.75348   0.75233   0.25064   Biso      1.000     Al          1.724998  
         Al4       1.0000    0.75360   0.25233   0.75058   Biso      1.000     Al          1.72337   
         C1        1.0000    0.32311   0.53699   0.46985   Biso      1.000     C          -0.098105           
         C2        1.0000    0.50351   0.35804   0.63162   Biso      1.000     C          0.635796  
         C3        1.0000    0.50349   0.43080   0.56221   Biso      1.000     C          -0.0325   
         C4        1.0000    0.18383   0.03712   0.97006   Biso      1.000     C          -0.097467           
         C5        1.0000    0.00344   0.85815   0.13181   Biso      1.000     C          0.6355609999999999  
         C6        1.0000    0.00345   0.93095   0.06246   Biso      1.000     C          -0.03258  
         C7        1.0000    0.82307   0.53710   0.03116   Biso      1.000     C          -0.097336           
         C8        1.0000    0.00340   0.57361   0.06268   Biso      1.000     C          -0.032287           
         C9        1.0000    0.82309   0.46734   0.97044   Biso      1.000     C          -0.098496           
         C10       1.0000    0.32307   0.96721   0.47070   Biso      1.000     C          -0.098347           
         C11       1.0000    0.68383   0.46728   0.53065   Biso      1.000     C          -0.097804           
         C12       1.0000    0.18380   0.96736   0.03080   Biso      1.000     C          -0.09791  
         C13       1.0000    0.68381   0.53705   0.46994   Biso      1.000     C          -0.097631           
         C14       1.0000    0.82313   0.03719   0.97017   Biso      1.000     C          -0.097527           
         C15       1.0000    0.00339   0.64648   0.13186   Biso      1.000     C          0.6343439999999999  
         C16       1.0000    0.50348   0.14639   0.63199   Biso      1.000     C          0.634342  
         C17       1.0000    0.82311   0.96743   0.03091   Biso      1.000     C          -0.098497           
         C18       1.0000    0.32314   0.46722   0.53056   Biso      1.000     C          -0.097838           
         C19       1.0000    0.50344   0.64643   0.36929   Biso      1.000     C          0.635031  
         C20       1.0000    0.50345   0.57353   0.43842   Biso      1.000     C          -0.032679           
         C21       1.0000    0.18376   0.53711   0.03118   Biso      1.000     C          -0.097194           
         C22       1.0000    0.50345   0.07348   0.56288   Biso      1.000     C          -0.031767000000000004         
         C23       1.0000    0.00349   0.07364   0.93860   Biso      1.000     C          -0.032392000000000004         
         C24       1.0000    0.00351   0.14650   0.86938   Biso      1.000     C          0.635191  
         C25       1.0000    0.50339   0.85803   0.36962   Biso      1.000     C          0.634796  
         C26       1.0000    0.50340   0.93077   0.43905   Biso      1.000     C          -0.032003           
         C27       1.0000    0.18378   0.46735   0.97046   Biso      1.000     C          -0.099049           
         C28       1.0000    0.00348   0.35812   0.86948   Biso      1.000     C          0.635045  
         C29       1.0000    0.00345   0.43090   0.93884   Biso      1.000     C          -0.031938           
         C30       1.0000    0.68376   0.96721   0.47065   Biso      1.000     C          -0.098552           
         C31       1.0000    0.68378   0.03698   0.53137   Biso      1.000     C          -0.097066           
         C32       1.0000    0.32309   0.03697   0.53142   Biso      1.000     C          -0.09767  
         H1        1.0000    0.50364   0.25253   0.87402   Biso      1.000     H          0.447562  
         H2        1.0000    0.82600   0.44198   0.55338   Biso      1.000     H          0.11882000000000001           
         H3        1.0000    0.00364   0.25243   0.62719   Biso      1.000     H          0.44634799999999997           
         H4        1.0000    0.32596   0.94201   0.05347   Biso      1.000     H          0.118708  
         H5        1.0000    0.18092   0.06226   0.55422   Biso      1.000     H          0.11831300000000002           
         H6        1.0000    0.50351   0.75249   0.12718   Biso      1.000     H          0.44668199999999997           
         H7        1.0000    0.82597   0.56237   0.44721   Biso      1.000     H          0.11893800000000002           
         H8        1.0000    0.18093   0.56226   0.44704   Biso      1.000     H          0.118894  
         H9        1.0000    0.32601   0.06238   0.94724   Biso      1.000     H          0.118743  
         H10       1.0000    0.32596   0.44203   0.94777   Biso      1.000     H          0.119064  
         H11       1.0000    0.82596   0.06227   0.55413   Biso      1.000     H          0.11854500000000001           
         H12       1.0000    0.32593   0.56241   0.05397   Biso      1.000     H          0.11883800000000001           
         H13       1.0000    0.82593   0.94189   0.44793   Biso      1.000     H          0.11893599999999999           
         H14       1.0000    0.68096   0.06251   0.94744   Biso      1.000     H          0.118755  
         H15       1.0000    0.18097   0.44186   0.55321   Biso      1.000     H          0.118394  
         H16       1.0000    0.18089   0.94188   0.44801   Biso      1.000     H          0.119082  
         H17       1.0000    0.68092   0.94214   0.05367   Biso      1.000     H          0.118723  
         H18       1.0000    0.00351   0.75239   0.37402   Biso      1.000     H          0.447521  
         H19       1.0000    0.68089   0.56239   0.05393   Biso      1.000     H          0.11853   
         H20       1.0000    0.68092   0.44201   0.94772   Biso      1.000     H          0.11903399999999999           
         O1        1.0000    0.83273   0.67555   0.16129   Biso      1.000     O          -0.6037939999999999           
         O2        1.0000    0.33284   0.17548   0.66140   Biso      1.000     O          -0.6037899999999999           
         O3        1.0000    0.67417   0.32902   0.66113   Biso      1.000     O          -0.604459           
         O4        1.0000    0.83284   0.32909   0.83997   Biso      1.000     O          -0.603705           
         O5        1.0000    0.33275   0.82901   0.34008   Biso      1.000     O          -0.603396           
         O6        1.0000    0.83279   0.82913   0.16133   Biso      1.000     O          -0.604011           
         O7        1.0000    0.83285   0.17556   0.83993   Biso      1.000     O          -0.60378  
         O8        1.0000    0.67410   0.67553   0.33993   Biso      1.000     O          -0.603784           
         O9        1.0000    0.67416   0.17548   0.66136   Biso      1.000     O          -0.604123           
         O10       1.0000    0.33278   0.67549   0.33985   Biso      1.000     O          -0.6036600000000001           
         O11       1.0000    0.50350   0.75240   0.19450   Biso      1.000     O          -1.04426  
         O12       1.0000    0.00362   0.25238   0.69450   Biso      1.000     O          -1.043433           
         O13       1.0000    0.50362   0.25242   0.80671   Biso      1.000     O          -1.0447959999999998           
         O14       1.0000    0.00350   0.75236   0.30670   Biso      1.000     O          -1.045157           
         O15       1.0000    0.17415   0.32909   0.84000   Biso      1.000     O          -0.60421  
         O16       1.0000    0.67405   0.82902   0.34009   Biso      1.000     O          -0.604306           
         O17       1.0000    0.17406   0.67554   0.16127   Biso      1.000     O          -0.603881           
         O18       1.0000    0.33286   0.32903   0.66116   Biso      1.000     O          -0.6040260000000001           
         O19       1.0000    0.17418   0.17556   0.83997   Biso      1.000     O          -0.6039869999999999           
         O20       1.0000    0.17409   0.82909   0.16125   Biso      1.000     O          -0.604208 