
##########################################################################
#               Crystallographic Information Format file
#               Produced by PyCifRW module
#
#  This is a CIF file.  CIF has been adopted by the International
#  Union of Crystallography as the standard for data archiving and
#  transmission.
#
#  For information on this file format, follow the CIF links at
#  http://www.iucr.org
##########################################################################

data_image0

_cell_length_a                          6.5603
_cell_length_b                          15.9846
_cell_length_c                          13.4441
_cell_angle_alpha                       90
_cell_angle_beta                        90
_cell_angle_gamma                       90
_symmetry_space_group_name_H-M          'P 1'
_symmetry_int_tables_number             1
loop_
  _symmetry_equiv_pos_as_xyz
         'x, y, z' 
loop_
  _atom_site_label
  _atom_site_occupancy
  _atom_site_fract_x
  _atom_site_fract_y
  _atom_site_fract_z
  _atom_site_thermal_displace_type
  _atom_site_B_iso_or_equiv
  _atom_site_type_symbol
  _atom_site_charge
         Al1       1.0000    0.74482   0.50292   0.74655   Biso      1.000     Al          1.734309  
         Al2       1.0000    0.24461   0.00306   0.24645   Biso      1.000     Al          1.735814  
         Al3       1.0000    0.24402   0.50270   0.74610   Biso      1.000     Al          1.734745  
         Al4       1.0000    0.74492   0.00313   0.24597   Biso      1.000     Al          1.7351130000000001  
         C1        1.0000    0.31109   0.29015   0.52475   Biso      1.000     C          -0.097979           
         C2        1.0000    0.31128   0.22104   0.46067   Biso      1.000     C          -0.096702           
         C3        1.0000    0.49868   0.81729   0.42412   Biso      1.000     C          -0.033047           
         C4        1.0000    0.49553   0.32474   0.55871   Biso      1.000     C          -0.032748           
         C5        1.0000    0.99711   0.39186   0.85769   Biso      1.000     C          0.638737  
         C6        1.0000    0.81110   0.72149   0.96003   Biso      1.000     C          -0.097186           
         C7        1.0000    0.81118   0.79041   0.02433   Biso      1.000     C          -0.097125           
         C8        1.0000    0.99787   0.10874   0.12894   Biso      1.000     C          0.63973   
         C9        1.0000    0.99778   0.31763   0.92475   Biso      1.000     C          -0.033393           
         C10       1.0000    0.68242   0.71173   0.51994   Biso      1.000     C          -0.096545           
         C11       1.0000    0.49552   0.18493   0.42861   Biso      1.000     C          -0.034235           
         C12       1.0000    0.99846   0.17810   0.05512   Biso      1.000     C          -0.035174000000000004         
         C13       1.0000    0.18257   0.28125   0.95596   Biso      1.000     C          -0.097339           
         C14       1.0000    0.18273   0.21216   0.02013   Biso      1.000     C          -0.096538           
         C15       1.0000    0.49825   0.89157   0.35713   Biso      1.000     C          0.638419  
         C16       1.0000    0.49711   0.60849   0.62870   Biso      1.000     C          0.6381859999999999  
         C17       1.0000    0.68293   0.78079   0.45556   Biso      1.000     C          -0.09788200000000001          
         C18       1.0000    0.49571   0.39517   0.63091   Biso      1.000     C          0.6390819999999999  
         C19       1.0000    0.49777   0.67774   0.55476   Biso      1.000     C          -0.034398000000000005         
         C20       1.0000    0.67966   0.28995   0.52495   Biso      1.000     C          -0.098669           
         C21       1.0000    0.99566   0.61228   0.85908   Biso      1.000     C          0.6382909999999999  
         C22       1.0000    0.99529   0.89519   0.13114   Biso      1.000     C          0.636087  
         C23       1.0000    0.99547   0.68558   0.92769   Biso      1.000     C          -0.032583999999999995         
         C24       1.0000    0.67963   0.22083   0.46092   Biso      1.000     C          -0.095997           
         C25       1.0000    0.81389   0.28106   0.95609   Biso      1.000     C          -0.09730599999999999          
         C26       1.0000    0.31412   0.71188   0.51963   Biso      1.000     C          -0.09715599999999999          
         C27       1.0000    0.81433   0.21211   0.02018   Biso      1.000     C          -0.095796           
         C28       1.0000    0.99560   0.82489   0.05855   Biso      1.000     C          -0.033299           
         C29       1.0000    0.49518   0.11172   0.36008   Biso      1.000     C          0.640225  
         C30       1.0000    0.17957   0.72140   0.96020   Biso      1.000     C          -0.0973   
         C31       1.0000    0.17980   0.79032   0.02447   Biso      1.000     C          -0.097243           
         C32       1.0000    0.31443   0.78080   0.45533   Biso      1.000     C          -0.097549           
         H1        1.0000    0.17045   0.80599   0.43035   Biso      1.000     H          0.119148  
         H2        1.0000    0.49297   0.50424   0.86374   Biso      1.000     H          0.446587  
         H3        1.0000    0.17014   0.68583   0.54288   Biso      1.000     H          0.118217  
         H4        1.0000    0.99276   0.50377   0.62882   Biso      1.000     H          0.447981  
         H5        1.0000    0.32701   0.18606   0.04347   Biso      1.000     H          0.118458  
         H6        1.0000    0.32689   0.30655   0.93093   Biso      1.000     H          0.11907999999999999           
         H7        1.0000    0.32384   0.81644   0.04830   Biso      1.000     H          0.118869  
         H8        1.0000    0.67067   0.18595   0.04338   Biso      1.000     H          0.117851  
         H9        1.0000    0.82673   0.68567   0.54345   Biso      1.000     H          0.118112  
         H10       1.0000    0.82749   0.80599   0.43057   Biso      1.000     H          0.119198  
         H11       1.0000    0.32367   0.69653   0.93516   Biso      1.000     H          0.118913  
         H12       1.0000    0.49552   0.00573   0.12915   Biso      1.000     H          0.44648699999999997           
         H13       1.0000    0.66716   0.81668   0.04790   Biso      1.000     H          0.118727  
         H14       1.0000    0.66679   0.69667   0.93499   Biso      1.000     H          0.11904   
         H15       1.0000    0.82387   0.19573   0.43623   Biso      1.000     H          0.118486  
         H16       1.0000    0.82375   0.31627   0.54840   Biso      1.000     H          0.118572  
         H17       1.0000    0.16690   0.31670   0.54784   Biso      1.000     H          0.11874900000000001           
         H18       1.0000    0.16702   0.19604   0.43588   Biso      1.000     H          0.11851400000000001           
         H19       1.0000    0.66997   0.30625   0.93116   Biso      1.000     H          0.11926199999999999           
         H20       1.0000    0.99484   0.00542   0.36402   Biso      1.000     H          0.448354  
         O1        1.0000    0.67103   0.92167   0.32894   Biso      1.000     O          -0.605743           
         O2        1.0000    0.49525   0.00479   0.19327   Biso      1.000     O          -1.056208           
         O3        1.0000    0.32415   0.58019   0.65930   Biso      1.000     O          -0.605023           
         O4        1.0000    0.17001   0.42137   0.82924   Biso      1.000     O          -0.605738           
         O5        1.0000    0.82478   0.08084   0.15944   Biso      1.000     O          -0.60556  
         O6        1.0000    0.32219   0.08221   0.33171   Biso      1.000     O          -0.6050770000000001           
         O7        1.0000    0.66786   0.42340   0.66193   Biso      1.000     O          -0.6068560000000001           
         O8        1.0000    0.82201   0.58251   0.83135   Biso      1.000     O          -0.60495  
         O9        1.0000    0.16814   0.92345   0.16185   Biso      1.000     O          -0.6060909999999999           
         O10       1.0000    0.99393   0.50371   0.69305   Biso      1.000     O          -1.057482           
         O11       1.0000    0.66783   0.08220   0.33109   Biso      1.000     O          -0.6058899999999999           
         O12       1.0000    0.16857   0.58292   0.82988   Biso      1.000     O          -0.605056           
         O13       1.0000    0.82210   0.92390   0.16063   Biso      1.000     O          -0.604993           
         O14       1.0000    0.32503   0.92179   0.32948   Biso      1.000     O          -0.6072649999999999           
         O15       1.0000    0.82455   0.42236   0.82992   Biso      1.000     O          -0.606233           
         O16       1.0000    0.17042   0.08071   0.15975   Biso      1.000     O          -0.606202           
         O17       1.0000    0.99486   0.00467   0.29987   Biso      1.000     O          -1.054975           
         O18       1.0000    0.49404   0.50392   0.79971   Biso      1.000     O          -1.052483           
         O19       1.0000    0.32280   0.42401   0.66023   Biso      1.000     O          -0.606684           
         O20       1.0000    0.67036   0.58076   0.65937   Biso      1.000     O          -0.605645 