
##########################################################################
#               Crystallographic Information Format file
#               Produced by PyCifRW module
#
#  This is a CIF file.  CIF has been adopted by the International
#  Union of Crystallography as the standard for data archiving and
#  transmission.
#
#  For information on this file format, follow the CIF links at
#  http://www.iucr.org
##########################################################################

data_image0

_cell_length_a                          6.799
_cell_length_b                          16.946
_cell_length_c                          12.749
_cell_angle_alpha                       90
_cell_angle_beta                        90
_cell_angle_gamma                       90
_symmetry_space_group_name_H-M          'P 1'
_symmetry_int_tables_number             1
loop_
  _symmetry_equiv_pos_as_xyz
         'x, y, z' 
loop_
  _atom_site_label
  _atom_site_occupancy
  _atom_site_fract_x
  _atom_site_fract_y
  _atom_site_fract_z
  _atom_site_thermal_displace_type
  _atom_site_B_iso_or_equiv
  _atom_site_type_symbol
  _atom_site_charge
         C1        1.0000    0.30400   0.03600   0.52600   Biso      1.000     C          -0.030680000000000002         
         C2        1.0000    0.80400   0.53600   0.02600   Biso      1.000     C          -0.029207           
         C3        1.0000    0.50000   0.56000   0.45700   Biso      1.000     C          -0.02181  
         C4        1.0000    0.19600   0.96400   0.02600   Biso      1.000     C          -0.033688           
         C5        1.0000    0.69600   0.46400   0.52600   Biso      1.000     C          -0.031786           
         C6        1.0000    0.00000   0.94000   0.04300   Biso      1.000     C          -0.022821           
         C7        1.0000    0.00000   0.87100   0.11700   Biso      1.000     C          0.629892  
         C8        1.0000    0.50000   0.44000   0.54300   Biso      1.000     C          -0.023852           
         C9        1.0000    0.50000   0.37100   0.61700   Biso      1.000     C          0.629687  
         C10       1.0000    0.30400   0.96400   0.47400   Biso      1.000     C          -0.033951999999999996         
         C11       1.0000    0.00000   0.56000   0.04300   Biso      1.000     C          -0.023006           
         C12       1.0000    0.50000   0.06000   0.54300   Biso      1.000     C          -0.022883           
         C13       1.0000    0.50000   0.12900   0.61700   Biso      1.000     C          0.629912  
         C14       1.0000    0.00000   0.44000   0.95700   Biso      1.000     C          -0.022756000000000002         
         C15       1.0000    0.00000   0.37100   0.88300   Biso      1.000     C          0.629931  
         C16       1.0000    0.50000   0.94000   0.45700   Biso      1.000     C          -0.022752           
         C17       1.0000    0.50000   0.87100   0.38300   Biso      1.000     C          0.6299899999999999  
         C18       1.0000    0.00000   0.06000   0.95700   Biso      1.000     C          -0.022893           
         C19       1.0000    0.00000   0.12900   0.88300   Biso      1.000     C          0.629865  
         C20       1.0000    0.00000   0.62900   0.11700   Biso      1.000     C          0.6299279999999999  
         C21       1.0000    0.80400   0.46400   0.97400   Biso      1.000     C          -0.036446           
         C22       1.0000    0.50000   0.62900   0.38300   Biso      1.000     C          0.6300979999999999  
         C23       1.0000    0.69600   0.53600   0.47400   Biso      1.000     C          -0.033049           
         C24       1.0000    0.80400   0.96400   0.02600   Biso      1.000     C          -0.031466           
         C25       1.0000    0.30400   0.46400   0.52600   Biso      1.000     C          -0.028423           
         C26       1.0000    0.19600   0.03600   0.97400   Biso      1.000     C          -0.031711           
         C27       1.0000    0.69600   0.96400   0.47400   Biso      1.000     C          -0.031473           
         C28       1.0000    0.19600   0.53600   0.02600   Biso      1.000     C          -0.035115           
         C29       1.0000    0.80400   0.03600   0.97400   Biso      1.000     C          -0.033309           
         C30       1.0000    0.30400   0.53600   0.47400   Biso      1.000     C          -0.036917           
         C31       1.0000    0.69600   0.03600   0.52600   Biso      1.000     C          -0.034154000000000004         
         C32       1.0000    0.19600   0.46400   0.97400   Biso      1.000     C          -0.029481           
         O1        1.0000    0.65600   0.83300   0.34200   Biso      1.000     O          -0.549415           
         O2        1.0000    0.15600   0.16700   0.84200   Biso      1.000     O          -0.549463           
         O3        1.0000    0.34400   0.83300   0.34200   Biso      1.000     O          -0.549581           
         O4        1.0000    0.34400   0.16700   0.65800   Biso      1.000     O          -0.549599           
         O5        1.0000    0.84400   0.66700   0.15800   Biso      1.000     O          -0.549429           
         O6        1.0000    0.65600   0.33300   0.65800   Biso      1.000     O          -0.5495439999999999           
         O7        1.0000    0.84400   0.33300   0.84200   Biso      1.000     O          -0.549403           
         O8        1.0000    0.65600   0.66700   0.34200   Biso      1.000     O          -0.549538           
         O9        1.0000    0.00000   0.25000   0.69300   Biso      1.000     O          -0.918502           
         O10       1.0000    0.15600   0.33300   0.84200   Biso      1.000     O          -0.549596           
         O11       1.0000    0.50000   0.25000   0.80700   Biso      1.000     O          -0.918434           
         O12       1.0000    0.00000   0.75000   0.30700   Biso      1.000     O          -0.9183959999999999           
         O13       1.0000    0.34400   0.33300   0.65800   Biso      1.000     O          -0.5495180000000001           
         O14       1.0000    0.84400   0.16700   0.84200   Biso      1.000     O          -0.549524           
         O15       1.0000    0.84400   0.83300   0.15800   Biso      1.000     O          -0.549564           
         O16       1.0000    0.65600   0.16700   0.65800   Biso      1.000     O          -0.549452           
         O17       1.0000    0.34400   0.66700   0.34200   Biso      1.000     O          -0.549407           
         O18       1.0000    0.15600   0.66700   0.15800   Biso      1.000     O          -0.5495770000000001           
         O19       1.0000    0.50000   0.75000   0.19300   Biso      1.000     O          -0.9184770000000001           
         O20       1.0000    0.15600   0.83300   0.15800   Biso      1.000     O          -0.549458           
         V1        1.0000    0.25000   0.25000   0.75000   Biso      1.000     V          2.032502  
         V2        1.0000    0.75000   0.25000   0.75000   Biso      1.000     V          2.032463  
         V3        1.0000    0.75000   0.75000   0.25000   Biso      1.000     V          2.032616  
         V4        1.0000    0.25000   0.75000   0.25000   Biso      1.000     V          2.032625 