
##########################################################################
#               Crystallographic Information Format file
#               Produced by PyCifRW module
#
#  This is a CIF file.  CIF has been adopted by the International
#  Union of Crystallography as the standard for data archiving and
#  transmission.
#
#  For information on this file format, follow the CIF links at
#  http://www.iucr.org
##########################################################################

data_image0

_cell_length_a                          16.7807
_cell_length_b                          6.6125
_cell_length_c                          12.7143
_cell_angle_alpha                       90
_cell_angle_beta                        90
_cell_angle_gamma                       90
_symmetry_space_group_name_H-M          'P 1'
_symmetry_int_tables_number             1
loop_
  _symmetry_equiv_pos_as_xyz
         'x, y, z' 
loop_
  _atom_site_label
  _atom_site_occupancy
  _atom_site_fract_x
  _atom_site_fract_y
  _atom_site_fract_z
  _atom_site_thermal_displace_type
  _atom_site_B_iso_or_equiv
  _atom_site_type_symbol
  _atom_site_charge
         Al1       1.0000    0.00000   0.75000   0.25000   Biso      1.000     Al          1.7724950000000002  
         Al2       1.0000    0.50000   0.25000   0.75000   Biso      1.000     Al          1.7724950000000002  
         Al3       1.0000    0.00000   0.25000   0.25000   Biso      1.000     Al          1.7724950000000002  
         Al4       1.0000    0.50000   0.75000   0.75000   Biso      1.000     Al          1.7724950000000002  
         C1        1.0000    0.29530   0.19800   0.98650   Biso      1.000     C          -0.106947           
         C2        1.0000    0.19460   0.00000   0.06620   Biso      1.000     C          -0.015993           
         C3        1.0000    0.21810   0.80180   0.04760   Biso      1.000     C          -0.100962           
         C4        1.0000    0.30540   0.50000   0.56620   Biso      1.000     C          -0.015993           
         C5        1.0000    0.61400   0.00000   0.89180   Biso      1.000     C          0.617775  
         C6        1.0000    0.79530   0.30200   0.48650   Biso      1.000     C          -0.106946           
         C7        1.0000    0.71810   0.30180   0.54760   Biso      1.000     C          -0.100963           
         C8        1.0000    0.68140   0.00000   0.96800   Biso      1.000     C          -0.006912000000000001         
         C9        1.0000    0.80540   0.00000   0.06620   Biso      1.000     C          -0.015993           
         C10       1.0000    0.78190   0.19820   0.04760   Biso      1.000     C          -0.100963           
         C11       1.0000    0.18140   0.50000   0.46800   Biso      1.000     C          -0.006912000000000001         
         C12       1.0000    0.88600   0.50000   0.39180   Biso      1.000     C          0.617775  
         C13       1.0000    0.81860   0.50000   0.46800   Biso      1.000     C          -0.0069099999999999995        
         C14       1.0000    0.20470   0.69800   0.48650   Biso      1.000     C          -0.106945           
         C15       1.0000    0.28190   0.69820   0.54760   Biso      1.000     C          -0.100963           
         C16       1.0000    0.69460   0.50000   0.56620   Biso      1.000     C          -0.015992           
         C17       1.0000    0.38600   0.00000   0.89180   Biso      1.000     C          0.617775  
         C18       1.0000    0.70470   0.19800   0.98650   Biso      1.000     C          -0.106945           
         C19       1.0000    0.11400   0.50000   0.39180   Biso      1.000     C          0.617775  
         C20       1.0000    0.29530   0.80200   0.98650   Biso      1.000     C          -0.106947           
         C21       1.0000    0.20470   0.30200   0.48650   Biso      1.000     C          -0.106945           
         C22       1.0000    0.21810   0.19820   0.04760   Biso      1.000     C          -0.100962           
         C23       1.0000    0.79530   0.69800   0.48650   Biso      1.000     C          -0.106945           
         C24       1.0000    0.71810   0.69820   0.54760   Biso      1.000     C          -0.100963           
         C25       1.0000    0.87890   0.00000   0.13120   Biso      1.000     C          0.634563  
         C26       1.0000    0.37890   0.50000   0.63120   Biso      1.000     C          0.634563  
         C27       1.0000    0.28190   0.30180   0.54760   Biso      1.000     C          -0.100963           
         C28       1.0000    0.70470   0.80200   0.98650   Biso      1.000     C          -0.106945           
         C29       1.0000    0.31860   0.00000   0.96800   Biso      1.000     C          -0.006909           
         C30       1.0000    0.78190   0.80180   0.04760   Biso      1.000     C          -0.100963           
         C31       1.0000    0.12110   0.00000   0.13120   Biso      1.000     C          0.634563  
         C32       1.0000    0.62110   0.50000   0.63120   Biso      1.000     C          0.634563  
         H1        1.0000    0.18901   0.65242   0.07062   Biso      1.000     H          0.142877  
         H2        1.0000    0.81099   0.65242   0.07062   Biso      1.000     H          0.142877  
         H3        1.0000    0.32449   0.34723   0.96344   Biso      1.000     H          0.14156400000000002           
         H4        1.0000    0.31099   0.84758   0.57062   Biso      1.000     H          0.142877  
         H5        1.0000    0.17551   0.84723   0.46344   Biso      1.000     H          0.14156300000000002           
         H6        1.0000    0.18901   0.34758   0.07062   Biso      1.000     H          0.142877  
         H7        1.0000    0.50000   0.50000   0.88655   Biso      1.000     H          0.41401499999999997           
         H8        1.0000    0.50000   0.00000   0.61405   Biso      1.000     H          0.39975700000000003           
         H9        1.0000    0.17551   0.15277   0.46344   Biso      1.000     H          0.14156300000000002           
         H10       1.0000    0.81099   0.34758   0.07062   Biso      1.000     H          0.142877  
         H11       1.0000    0.67551   0.34723   0.96344   Biso      1.000     H          0.14156400000000002           
         H12       1.0000    0.31099   0.15242   0.57062   Biso      1.000     H          0.142877  
         H13       1.0000    0.67551   0.65277   0.96344   Biso      1.000     H          0.14156300000000002           
         H14       1.0000    0.68901   0.15242   0.57062   Biso      1.000     H          0.142877  
         H15       1.0000    0.82449   0.15277   0.46344   Biso      1.000     H          0.14156400000000002           
         H16       1.0000    0.68901   0.84758   0.57062   Biso      1.000     H          0.142877  
         H17       1.0000    0.00000   0.00000   0.38655   Biso      1.000     H          0.41401499999999997           
         H18       1.0000    0.00000   0.50000   0.11405   Biso      1.000     H          0.39975700000000003           
         H19       1.0000    0.32449   0.65277   0.96344   Biso      1.000     H          0.14156400000000002           
         H20       1.0000    0.82449   0.84723   0.46344   Biso      1.000     H          0.14156400000000002           
         O1        1.0000    0.50000   0.50000   0.80790   Biso      1.000     O          -1.0358040000000002           
         O2        1.0000    0.00000   0.00000   0.30790   Biso      1.000     O          -1.0358040000000002           
         O3        1.0000    0.08820   0.16230   0.16520   Biso      1.000     O          -0.632662           
         O4        1.0000    0.07620   0.34860   0.34780   Biso      1.000     O          -0.642386           
         O5        1.0000    0.42380   0.84860   0.84780   Biso      1.000     O          -0.642386           
         O6        1.0000    0.58820   0.33770   0.66520   Biso      1.000     O          -0.632662           
         O7        1.0000    0.92380   0.34860   0.34780   Biso      1.000     O          -0.642386           
         O8        1.0000    0.08820   0.83770   0.16520   Biso      1.000     O          -0.632662           
         O9        1.0000    0.57620   0.15140   0.84780   Biso      1.000     O          -0.642386           
         O10       1.0000    0.41180   0.66230   0.66520   Biso      1.000     O          -0.632662           
         O11       1.0000    0.91180   0.83770   0.16520   Biso      1.000     O          -0.632662           
         O12       1.0000    0.07620   0.65140   0.34780   Biso      1.000     O          -0.642386           
         O13       1.0000    0.42380   0.15140   0.84780   Biso      1.000     O          -0.642386           
         O14       1.0000    0.58820   0.66230   0.66520   Biso      1.000     O          -0.632662           
         O15       1.0000    0.92380   0.65140   0.34780   Biso      1.000     O          -0.642386           
         O16       1.0000    0.50000   0.00000   0.69270   Biso      1.000     O          -0.987765           
         O17       1.0000    0.57620   0.84860   0.84780   Biso      1.000     O          -0.642386           
         O18       1.0000    0.41180   0.33770   0.66520   Biso      1.000     O          -0.632662           
         O19       1.0000    0.91180   0.16230   0.16520   Biso      1.000     O          -0.632662           
         O20       1.0000    0.00000   0.50000   0.19270   Biso      1.000     O          -0.987765 