
##########################################################################
#               Crystallographic Information Format file
#               Produced by PyCifRW module
#
#  This is a CIF file.  CIF has been adopted by the International
#  Union of Crystallography as the standard for data archiving and
#  transmission.
#
#  For information on this file format, follow the CIF links at
#  http://www.iucr.org
##########################################################################

data_image0

_cell_length_a                          13.159
_cell_length_b                          14.04
_cell_length_c                          16.007
_cell_angle_alpha                       90
_cell_angle_beta                        108.234
_cell_angle_gamma                       90
_symmetry_space_group_name_H-M          'P 1'
_symmetry_int_tables_number             1
loop_
  _symmetry_equiv_pos_as_xyz
         'x, y, z' 
loop_
  _atom_site_label
  _atom_site_occupancy
  _atom_site_fract_x
  _atom_site_fract_y
  _atom_site_fract_z
  _atom_site_thermal_displace_type
  _atom_site_B_iso_or_equiv
  _atom_site_type_symbol
  _atom_site_charge
         B1        1.0000    0.79500   0.76350   0.31550   Biso      1.000     B          0.042799000000000004          
         B2        1.0000    0.86370   0.11990   0.23910   Biso      1.000     B          0.036914999999999996          
         B3        1.0000    0.77400   0.10230   0.29400   Biso      1.000     B          0.029495  
         B4        1.0000    0.67710   0.18800   0.26220   Biso      1.000     B          0.024491  
         B5        1.0000    0.70500   0.26350   0.18450   Biso      1.000     B          0.042799000000000004          
         B6        1.0000    0.82280   0.22060   0.17060   Biso      1.000     B          0.035588999999999996          
         B7        1.0000    0.92500   0.23300   0.26910   Biso      1.000     B          0.044944  
         B8        1.0000    0.89300   0.15860   0.34790   Biso      1.000     B          0.038171  
         B9        1.0000    0.73630   0.29970   0.29350   Biso      1.000     B          0.02557   
         B10       1.0000    0.82200   0.31980   0.23660   Biso      1.000     B          0.024676  
         B11       1.0000    0.62280   0.95350   0.55280   Biso      1.000     B          0.038869  
         B12       1.0000    0.60450   0.07120   0.52610   Biso      1.000     B          0.018705  
         B13       1.0000    0.47590   0.11010   0.52990   Biso      1.000     B          0.038312  
         B14       1.0000    0.41290   0.00820   0.55850   Biso      1.000     B          0.038375  
         B15       1.0000    0.00280   0.58800   0.07190   Biso      1.000     B          0.030842  
         B16       1.0000    0.50280   0.91200   0.57190   Biso      1.000     B          0.030842  
         B17       1.0000    0.72600   0.60230   0.20600   Biso      1.000     B          0.029495999999999998          
         B18       1.0000    0.82290   0.68800   0.23780   Biso      1.000     B          0.024491  
         B19       1.0000    0.67720   0.72060   0.32940   Biso      1.000     B          0.03559   
         B20       1.0000    0.57500   0.73300   0.23090   Biso      1.000     B          0.044945  
         B21       1.0000    0.60700   0.65860   0.15210   Biso      1.000     B          0.038171  
         B22       1.0000    0.72300   0.70040   0.13850   Biso      1.000     B          0.041041  
         B23       1.0000    0.76370   0.79970   0.20650   Biso      1.000     B          0.02557   
         B24       1.0000    0.67800   0.81980   0.26340   Biso      1.000     B          0.024676  
         B25       1.0000    0.87720   0.45350   0.94720   Biso      1.000     B          0.038869  
         B26       1.0000    0.89550   0.57120   0.97390   Biso      1.000     B          0.018705  
         B27       1.0000    0.02410   0.61010   0.97010   Biso      1.000     B          0.038312  
         B28       1.0000    0.08710   0.50820   0.94150   Biso      1.000     B          0.038375  
         B29       1.0000    0.99720   0.41200   0.92810   Biso      1.000     B          0.030842  
         B30       1.0000    0.63630   0.61990   0.26090   Biso      1.000     B          0.036913999999999995          
         B31       1.0000    0.91290   0.49180   0.05850   Biso      1.000     B          0.038374  
         B32       1.0000    0.77700   0.20040   0.36150   Biso      1.000     B          0.041041  
         B33       1.0000    0.10450   0.42880   0.02610   Biso      1.000     B          0.018705  
         B34       1.0000    0.13630   0.88010   0.76090   Biso      1.000     B          0.036914999999999996          
         B35       1.0000    0.22600   0.89770   0.70600   Biso      1.000     B          0.029495  
         B36       1.0000    0.32290   0.81200   0.73780   Biso      1.000     B          0.024491  
         B37       1.0000    0.97590   0.38990   0.02990   Biso      1.000     B          0.038312  
         B38       1.0000    0.17720   0.77940   0.82940   Biso      1.000     B          0.035588999999999996          
         B39       1.0000    0.07500   0.76700   0.73090   Biso      1.000     B          0.044944  
         B40       1.0000    0.10700   0.84140   0.65210   Biso      1.000     B          0.038171  
         B41       1.0000    0.22300   0.79960   0.63850   Biso      1.000     B          0.041041  
         B42       1.0000    0.26370   0.70030   0.70650   Biso      1.000     B          0.02557   
         B43       1.0000    0.17800   0.68020   0.76340   Biso      1.000     B          0.024676  
         B44       1.0000    0.37720   0.04650   0.44720   Biso      1.000     B          0.038869  
         B45       1.0000    0.39550   0.92880   0.47390   Biso      1.000     B          0.018704  
         B46       1.0000    0.52410   0.88990   0.47010   Biso      1.000     B          0.038312  
         B47       1.0000    0.29500   0.73650   0.81550   Biso      1.000     B          0.042798  
         B48       1.0000    0.49720   0.08800   0.42810   Biso      1.000     B          0.030842  
         B49       1.0000    0.58710   0.99180   0.44150   Biso      1.000     B          0.038374  
         B50       1.0000    0.12280   0.54650   0.05280   Biso      1.000     B          0.038869  
         B51       1.0000    0.32200   0.18020   0.73660   Biso      1.000     B          0.024677  
         B52       1.0000    0.27700   0.29960   0.86150   Biso      1.000     B          0.041041  
         B53       1.0000    0.39300   0.34140   0.84790   Biso      1.000     B          0.038171  
         B54       1.0000    0.42500   0.26700   0.76910   Biso      1.000     B          0.044945  
         B55       1.0000    0.23630   0.20030   0.79350   Biso      1.000     B          0.025571  
         B56       1.0000    0.20500   0.23650   0.68450   Biso      1.000     B          0.042798  
         B57       1.0000    0.17710   0.31200   0.76220   Biso      1.000     B          0.024491  
         B58       1.0000    0.27400   0.39770   0.79400   Biso      1.000     B          0.029495  
         B59       1.0000    0.36370   0.38010   0.73910   Biso      1.000     B          0.036913999999999995          
         B60       1.0000    0.32280   0.27940   0.67060   Biso      1.000     B          0.035588999999999996          
         C1        1.0000    0.36740   0.22460   0.84080   Biso      1.000     C          -0.119146           
         C2        1.0000    0.23400   0.35370   0.69020   Biso      1.000     C          -0.11699200000000001          
         C3        1.0000    0.93370   0.34270   0.41380   Biso      1.000     C          0.759948  
         C4        1.0000    0.16580   0.41870   0.61550   Biso      1.000     C          0.75078   
         C5        1.0000    0.43370   0.15730   0.91380   Biso      1.000     C          0.759948  
         C6        1.0000    0.04870   0.47430   0.09860   Biso      1.000     C          -0.101224           
         C7        1.0000    0.09700   0.44910   0.19700   Biso      1.000     C          0.6809930000000001  
         C8        1.0000    0.73400   0.14630   0.19020   Biso      1.000     C          -0.11699200000000001          
         C9        1.0000    0.86740   0.27540   0.34080   Biso      1.000     C          -0.119146           
         C10       1.0000    0.66580   0.08130   0.11550   Biso      1.000     C          0.750779  
         C11       1.0000    0.54870   0.02570   0.59860   Biso      1.000     C          -0.101224           
         C12       1.0000    0.95130   0.52570   0.90140   Biso      1.000     C          -0.101224           
         C13       1.0000    0.76600   0.64630   0.30980   Biso      1.000     C          -0.11699200000000001          
         C14       1.0000    0.63260   0.77540   0.15920   Biso      1.000     C          -0.119146           
         C15       1.0000    0.83420   0.58130   0.38450   Biso      1.000     C          0.750779  
         C16       1.0000    0.56630   0.84270   0.08620   Biso      1.000     C          0.759948  
         C17       1.0000    0.90300   0.55090   0.80300   Biso      1.000     C          0.6809930000000001  
         C18       1.0000    0.26600   0.85370   0.80980   Biso      1.000     C          -0.11699200000000001          
         C19       1.0000    0.13260   0.72460   0.65920   Biso      1.000     C          -0.119146           
         C20       1.0000    0.33420   0.91870   0.88450   Biso      1.000     C          0.750779  
         C21       1.0000    0.06630   0.65730   0.58620   Biso      1.000     C          0.759948  
         C22       1.0000    0.40300   0.94910   0.30300   Biso      1.000     C          0.6809930000000001  
         C23       1.0000    0.59700   0.05090   0.69700   Biso      1.000     C          0.6809930000000001  
         C24       1.0000    0.45130   0.97430   0.40140   Biso      1.000     C          -0.101224           
         Ce1       1.0000    0.38626   0.02145   0.08447   Biso      1.000     Ce          2.153372  
         Ce2       1.0000    0.88626   0.47855   0.58447   Biso      1.000     Ce          2.153372  
         Ce3       1.0000    0.61374   0.97855   0.91553   Biso      1.000     Ce          2.153372  
         Ce4       1.0000    0.11374   0.52145   0.41553   Biso      1.000     Ce          2.153372  
         H1        1.0000    0.50530   0.85340   0.62000   Biso      1.000     H          -0.044314           
         H2        1.0000    0.59360   0.55810   0.27900   Biso      1.000     H          -0.036172           
         H3        1.0000    0.74420   0.52850   0.18820   Biso      1.000     H          -0.026662           
         H4        1.0000    0.90710   0.67110   0.24060   Biso      1.000     H          -0.044597000000000005         
         H5        1.0000    0.85920   0.79780   0.37040   Biso      1.000     H          -0.030576           
         H6        1.0000    0.66080   0.72590   0.39380   Biso      1.000     H          -0.032739           
         H7        1.0000    0.49090   0.74950   0.22870   Biso      1.000     H          -0.023731           
         H8        1.0000    0.54430   0.62460   0.09600   Biso      1.000     H          -0.031624           
         H9        1.0000    0.73840   0.69510   0.07380   Biso      1.000     H          -0.030662000000000002         
         H10       1.0000    0.80620   0.86040   0.18650   Biso      1.000     H          -0.037821           
         H11       1.0000    0.66270   0.89410   0.28230   Biso      1.000     H          -0.029077999999999996         
         H12       1.0000    0.79670   0.42320   0.91120   Biso      1.000     H          -0.039152           
         H13       1.0000    0.82400   0.61930   0.95480   Biso      1.000     H          -0.049236           
         H14       1.0000    0.03890   0.68360   0.94950   Biso      1.000     H          -0.044971           
         H15       1.0000    0.14300   0.51320   0.90130   Biso      1.000     H          -0.036236000000000004         
         H16       1.0000    0.99470   0.35340   0.88000   Biso      1.000     H          -0.044314           
         H17       1.0000    0.35700   0.01320   0.59870   Biso      1.000     H          -0.036236000000000004         
         H18       1.0000    0.46110   0.18360   0.55050   Biso      1.000     H          -0.044971           
         H19       1.0000    0.45570   0.37540   0.90400   Biso      1.000     H          -0.031625           
         H20       1.0000    0.70330   0.92320   0.58880   Biso      1.000     H          -0.039152           
         H21       1.0000    0.09290   0.32890   0.75940   Biso      1.000     H          -0.044598           
         H22       1.0000    0.25580   0.47150   0.81180   Biso      1.000     H          -0.026662           
         H23       1.0000    0.40640   0.44190   0.72100   Biso      1.000     H          -0.036173000000000004         
         H24       1.0000    0.49470   0.14660   0.38000   Biso      1.000     H          -0.044314           
         H25       1.0000    0.64300   0.98680   0.40130   Biso      1.000     H          -0.036236000000000004         
         H26       1.0000    0.53890   0.81640   0.44950   Biso      1.000     H          -0.044971           
         H27       1.0000    0.32400   0.88070   0.45480   Biso      1.000     H          -0.049236           
         H28       1.0000    0.29670   0.07680   0.41120   Biso      1.000     H          -0.039152           
         H29       1.0000    0.14080   0.20220   0.62960   Biso      1.000     H          -0.030576           
         H30       1.0000    0.16270   0.60590   0.78230   Biso      1.000     H          -0.029077999999999996         
         H31       1.0000    0.23840   0.80490   0.57380   Biso      1.000     H          -0.030662000000000002         
         H32       1.0000    0.04430   0.87540   0.59600   Biso      1.000     H          -0.031625           
         H33       1.0000    0.99090   0.75050   0.72870   Biso      1.000     H          -0.023731           
         H34       1.0000    0.16080   0.77410   0.89380   Biso      1.000     H          -0.032739           
         H35       1.0000    0.35920   0.70220   0.87040   Biso      1.000     H          -0.030576           
         H36       1.0000    0.40710   0.82890   0.74060   Biso      1.000     H          -0.044598           
         H37       1.0000    0.24420   0.97150   0.68820   Biso      1.000     H          -0.026662           
         H38       1.0000    0.09360   0.94190   0.77900   Biso      1.000     H          -0.036173000000000004         
         H39       1.0000    0.67600   0.11930   0.54520   Biso      1.000     H          -0.049236           
         H40       1.0000    0.33920   0.27410   0.60620   Biso      1.000     H          -0.032739           
         H41       1.0000    0.30620   0.63960   0.68650   Biso      1.000     H          -0.037821           
         H42       1.0000    0.00910   0.24950   0.27130   Biso      1.000     H          -0.023731           
         H43       1.0000    0.83730   0.39410   0.21770   Biso      1.000     H          -0.029077999999999996         
         H44       1.0000    0.69380   0.36040   0.31350   Biso      1.000     H          -0.037821           
         H45       1.0000    0.76160   0.19510   0.42620   Biso      1.000     H          -0.030662000000000002         
         H46       1.0000    0.95570   0.12460   0.40400   Biso      1.000     H          -0.031625           
         H47       1.0000    0.83920   0.22590   0.10620   Biso      1.000     H          -0.032739           
         H48       1.0000    0.64080   0.29780   0.12960   Biso      1.000     H          -0.030576           
         H49       1.0000    0.50910   0.25050   0.77130   Biso      1.000     H          -0.023731           
         H50       1.0000    0.75580   0.02850   0.31180   Biso      1.000     H          -0.026662           
         H51       1.0000    0.59290   0.17110   0.25940   Biso      1.000     H          -0.044598           
         H52       1.0000    0.00530   0.64660   0.12000   Biso      1.000     H          -0.044314           
         H53       1.0000    0.85700   0.48680   0.09870   Biso      1.000     H          -0.036236000000000004         
         H54       1.0000    0.96110   0.31640   0.05050   Biso      1.000     H          -0.044971           
         H55       1.0000    0.17600   0.38070   0.04520   Biso      1.000     H          -0.049236           
         H56       1.0000    0.20330   0.57680   0.08880   Biso      1.000     H          -0.039152           
         H57       1.0000    0.33730   0.10590   0.71770   Biso      1.000     H          -0.029077999999999996         
         H58       1.0000    0.19380   0.13960   0.81350   Biso      1.000     H          -0.037821           
         H59       1.0000    0.26160   0.30490   0.92620   Biso      1.000     H          -0.030662000000000002         
         H60       1.0000    0.90640   0.05810   0.22100   Biso      1.000     H          -0.036173000000000004         
         O1        1.0000    0.01930   0.37120   0.40690   Biso      1.000     O          -0.6370020000000001           
         O2        1.0000    0.89270   0.36180   0.47220   Biso      1.000     O          -0.688227           
         O3        1.0000    0.57440   0.99890   0.75170   Biso      1.000     O          -0.741846           
         O4        1.0000    0.65390   0.12370   0.71260   Biso      1.000     O          -0.576221           
         O5        1.0000    0.92560   0.49890   0.74830   Biso      1.000     O          -0.741845           
         O6        1.0000    0.92530   0.55950   0.38210   Biso      1.000     O          -0.685238           
         O7        1.0000    0.48070   0.87120   0.09310   Biso      1.000     O          -0.6370020000000001           
         O8        1.0000    0.60730   0.86180   0.02780   Biso      1.000     O          -0.688227           
         O9        1.0000    0.57470   0.05950   0.11790   Biso      1.000     O          -0.685238           
         O10       1.0000    0.79200   0.55690   0.44140   Biso      1.000     O          -0.65042  
         O11       1.0000    0.70800   0.05690   0.05860   Biso      1.000     O          -0.65042  
         O12       1.0000    0.98070   0.62880   0.59310   Biso      1.000     O          -0.6370020000000001           
         O13       1.0000    0.07440   0.50110   0.25170   Biso      1.000     O          -0.741846           
         O14       1.0000    0.39270   0.13820   0.97220   Biso      1.000     O          -0.688227           
         O15       1.0000    0.51930   0.12880   0.90690   Biso      1.000     O          -0.6370020000000001           
         O16       1.0000    0.07470   0.44050   0.61790   Biso      1.000     O          -0.685238           
         O17       1.0000    0.20800   0.44310   0.55860   Biso      1.000     O          -0.65042  
         O18       1.0000    0.34610   0.87630   0.28740   Biso      1.000     O          -0.576221           
         O19       1.0000    0.42560   0.00110   0.24830   Biso      1.000     O          -0.741846           
         O20       1.0000    0.10730   0.63820   0.52780   Biso      1.000     O          -0.688227           
         O21       1.0000    0.42530   0.94050   0.88210   Biso      1.000     O          -0.685238           
         O22       1.0000    0.29200   0.94310   0.94140   Biso      1.000     O          -0.65042  
         O23       1.0000    0.15390   0.37630   0.21260   Biso      1.000     O          -0.576221           
         O24       1.0000    0.84610   0.62370   0.78740   Biso      1.000     O          -0.576222 