
##########################################################################
#               Crystallographic Information Format file
#               Produced by PyCifRW module
#
#  This is a CIF file.  CIF has been adopted by the International
#  Union of Crystallography as the standard for data archiving and
#  transmission.
#
#  For information on this file format, follow the CIF links at
#  http://www.iucr.org
##########################################################################

data_image0

_cell_length_a                          10.0239
_cell_length_b                          10.0797
_cell_length_c                          23.5726
_cell_angle_alpha                       77.713
_cell_angle_beta                        79.766
_cell_angle_gamma                       88.768
_symmetry_space_group_name_H-M          'P 1'
_symmetry_int_tables_number             1
loop_
  _symmetry_equiv_pos_as_xyz
         'x, y, z' 
loop_
  _atom_site_label
  _atom_site_occupancy
  _atom_site_fract_x
  _atom_site_fract_y
  _atom_site_fract_z
  _atom_site_thermal_displace_type
  _atom_site_B_iso_or_equiv
  _atom_site_type_symbol
  _atom_site_charge
         C1        1.0000    0.64800   0.53800   0.37100   Biso      1.000     C          0.111286  
         C2        1.0000    0.32900   0.05100   0.01600   Biso      1.000     C          0.097201  
         C3        1.0000    0.63600   0.22400   0.32900   Biso      1.000     C          0.11828499999999999           
         C4        1.0000    0.02100   0.89700   0.94100   Biso      1.000     C          -0.20899299999999998          
         C5        1.0000    0.29300   0.12400   0.11200   Biso      1.000     C          -0.191338           
         C6        1.0000    0.48000   0.12400   0.57700   Biso      1.000     C          0.097326  
         C7        1.0000    0.04800   0.91300   0.88000   Biso      1.000     C          0.101952  
         C8        1.0000    0.25900   0.18400   0.56700   Biso      1.000     C          0.10690799999999999           
         C9        1.0000    0.64400   0.81800   0.01700   Biso      1.000     C          -0.207851           
         C10       1.0000    0.38000   0.20700   0.92200   Biso      1.000     C          0.10606700000000001           
         C11       1.0000    0.70500   0.79000   0.49400   Biso      1.000     C          -0.21954400000000002          
         C12       1.0000    0.35600   0.18200   0.98300   Biso      1.000     C          -0.20784699999999998          
         C13       1.0000    0.35200   0.46200   0.62900   Biso      1.000     C          0.111286  
         C14       1.0000    0.35600   0.97900   0.92300   Biso      1.000     C          0.10411   
         C15       1.0000    0.60500   0.20700   0.38900   Biso      1.000     C          -0.200418           
         C16       1.0000    0.47900   0.85000   0.48300   Biso      1.000     C          -0.205958           
         C17       1.0000    0.50900   0.51600   0.46700   Biso      1.000     C          0.088808  
         C18       1.0000    0.29900   0.88900   0.11300   Biso      1.000     C          -0.198473           
         C19       1.0000    0.72500   0.13500   0.82600   Biso      1.000     C          0.110028  
         C20       1.0000    0.36500   0.49100   0.56800   Biso      1.000     C          -0.204226           
         C21       1.0000    0.72600   0.90700   0.82800   Biso      1.000     C          0.129078  
         C22       1.0000    0.01300   0.00800   0.96700   Biso      1.000     C          0.090408  
         C23       1.0000    0.62000   0.79300   0.07800   Biso      1.000     C          0.106073  
         C24       1.0000    0.03000   0.13500   0.92900   Biso      1.000     C          -0.207659           
         C25       1.0000    0.05700   0.14400   0.86900   Biso      1.000     C          0.10611400000000001           
         C26       1.0000    0.57300   0.80700   0.52000   Biso      1.000     C          0.094533  
         C27       1.0000    0.53000   0.78400   0.58500   Biso      1.000     C          0.073834  
         C28       1.0000    0.58000   0.42300   0.62400   Biso      1.000     C          0.10423299999999999           
         C29       1.0000    0.62500   0.75700   0.62200   Biso      1.000     C          -0.18258  
         C30       1.0000    0.33100   0.94800   0.98500   Biso      1.000     C          -0.209    
         C31       1.0000    0.69600   0.98000   0.91900   Biso      1.000     C          0.076004  
         C32       1.0000    0.64400   0.02100   0.07700   Biso      1.000     C          0.10411400000000001           
         C33       1.0000    0.30400   0.02000   0.08100   Biso      1.000     C          0.07601000000000001           
         C34       1.0000    0.63500   0.50900   0.43200   Biso      1.000     C          -0.204226           
         C35       1.0000    0.74100   0.81600   0.43300   Biso      1.000     C          0.10690899999999999           
         C36       1.0000    0.42000   0.57700   0.37600   Biso      1.000     C          0.10423299999999999           
         C37       1.0000    0.70100   0.11100   0.88700   Biso      1.000     C          -0.198465           
         C38       1.0000    0.41600   0.25800   0.31800   Biso      1.000     C          0.11748499999999999           
         C39       1.0000    0.52000   0.87600   0.42300   Biso      1.000     C          0.097338  
         C40       1.0000    0.37500   0.24300   0.37800   Biso      1.000     C          -0.182579           
         C41       1.0000    0.49100   0.48400   0.53300   Biso      1.000     C          0.088809  
         C42       1.0000    0.47000   0.21600   0.41500   Biso      1.000     C          0.073834  
         C43       1.0000    0.42700   0.19300   0.48000   Biso      1.000     C          0.094528  
         C44       1.0000    0.94300   0.85600   0.13100   Biso      1.000     C          0.10611300000000001           
         C45       1.0000    0.70700   0.87600   0.88800   Biso      1.000     C          -0.191314           
         C46       1.0000    0.40000   0.55100   0.43800   Biso      1.000     C          -0.209629           
         C47       1.0000    0.98700   0.99200   0.03300   Biso      1.000     C          0.090405  
         C48       1.0000    0.97000   0.86500   0.07100   Biso      1.000     C          -0.20765799999999998          
         C49       1.0000    0.58400   0.74200   0.68200   Biso      1.000     C          0.117487  
         C50       1.0000    0.36400   0.77600   0.67100   Biso      1.000     C          0.11828399999999999           
         C51       1.0000    0.27500   0.86500   0.17400   Biso      1.000     C          0.11002999999999999           
         C52       1.0000    0.67100   0.94900   0.98400   Biso      1.000     C          0.097208  
         C53       1.0000    0.52100   0.15000   0.51700   Biso      1.000     C          -0.205945           
         C54       1.0000    0.66900   0.05200   0.01500   Biso      1.000     C          -0.209    
         C55       1.0000    0.29500   0.21000   0.50600   Biso      1.000     C          -0.21953899999999998          
         C56       1.0000    0.39500   0.79300   0.61100   Biso      1.000     C          -0.200417           
         C57       1.0000    0.27400   0.09300   0.17200   Biso      1.000     C          0.129101  
         C58       1.0000    0.95200   0.08700   0.12000   Biso      1.000     C          0.101949  
         C59       1.0000    0.60000   0.44900   0.56200   Biso      1.000     C          -0.209629           
         C60       1.0000    0.97900   0.10300   0.05900   Biso      1.000     C          -0.208988           
         H1        1.0000    0.68800   0.18340   0.90650   Biso      1.000     H          0.118826  
         H2        1.0000    0.65460   0.40010   0.64210   Biso      1.000     H          0.10816600000000001           
         H3        1.0000    0.68470   0.14140   0.99510   Biso      1.000     H          0.135767  
         H4        1.0000    0.28960   0.51590   0.55080   Biso      1.000     H          0.12775599999999998           
         H5        1.0000    0.26660   0.46580   0.65150   Biso      1.000     H          0.11351300000000002           
         H6        1.0000    0.64340   0.09030   0.09730   Biso      1.000     H          0.116827  
         H7        1.0000    0.64300   0.74690   0.99790   Biso      1.000     H          0.13229000000000002           
         H8        1.0000    0.76950   0.75970   0.51710   Biso      1.000     H          0.133413  
         H9        1.0000    0.71630   0.74890   0.60660   Biso      1.000     H          0.12898199999999999           
         H10       1.0000    0.83030   0.80460   0.41620   Biso      1.000     H          0.099499  
         H11       1.0000    0.45850   0.90440   0.39760   Biso      1.000     H          0.119055  
         H12       1.0000    0.70180   0.78590   0.90810   Biso      1.000     H          0.124009  
         H13       1.0000    0.27330   0.78310   0.68790   Biso      1.000     H          0.098898  
         H14       1.0000    0.32810   0.81100   0.58800   Biso      1.000     H          0.125801  
         H15       1.0000    0.68610   0.44330   0.54100   Biso      1.000     H          0.125919  
         H16       1.0000    0.64900   0.72430   0.70590   Biso      1.000     H          0.10546900000000001           
         H17       1.0000    0.00820   0.81000   0.96460   Biso      1.000     H          0.123099  
         H18       1.0000    0.60690   0.86520   0.14580   Biso      1.000     H          0.294267  
         H19       1.0000    0.38880   0.86110   0.49840   Biso      1.000     H          0.134062  
         H20       1.0000    0.73610   0.22400   0.80440   Biso      1.000     H          0.10561300000000001           
         H21       1.0000    0.73390   0.83600   0.80760   Biso      1.000     H          0.101151  
         H22       1.0000    0.02390   0.21310   0.94380   Biso      1.000     H          0.120797  
         H23       1.0000    0.06840   0.23030   0.84430   Biso      1.000     H          0.10340899999999999           
         H24       1.0000    0.05420   0.83560   0.86420   Biso      1.000     H          0.11235099999999999           
         H25       1.0000    0.66900   0.87850   0.36110   Biso      1.000     H          0.296657  
         H26       1.0000    0.60130   0.70480   0.09900   Biso      1.000     H          0.11656199999999999           
         H27       1.0000    0.98330   0.37680   0.59670   Biso      1.000     H          0.40981000000000006           
         H28       1.0000    0.31200   0.81660   0.09350   Biso      1.000     H          0.118827  
         H29       1.0000    0.31530   0.85860   0.00490   Biso      1.000     H          0.135767  
         H30       1.0000    0.35660   0.90970   0.90270   Biso      1.000     H          0.116828  
         H31       1.0000    0.35700   0.25310   0.00210   Biso      1.000     H          0.13229000000000002           
         H32       1.0000    0.39870   0.29520   0.90100   Biso      1.000     H          0.11656300000000001           
         H33       1.0000    0.16970   0.19540   0.58380   Biso      1.000     H          0.099499  
         H34       1.0000    0.54150   0.09560   0.60240   Biso      1.000     H          0.119055  
         H35       1.0000    0.29820   0.21410   0.09190   Biso      1.000     H          0.124011  
         H36       1.0000    0.72670   0.21690   0.31210   Biso      1.000     H          0.098898  
         H37       1.0000    0.67190   0.18900   0.41200   Biso      1.000     H          0.125801  
         H38       1.0000    0.31390   0.55670   0.45900   Biso      1.000     H          0.125919  
         H39       1.0000    0.39310   0.13480   0.85420   Biso      1.000     H          0.294268  
         H40       1.0000    0.99180   0.19000   0.03540   Biso      1.000     H          0.123099  
         H41       1.0000    0.23050   0.24030   0.48290   Biso      1.000     H          0.133413  
         H42       1.0000    0.61120   0.13890   0.50160   Biso      1.000     H          0.134062  
         H43       1.0000    0.26390   0.77600   0.19560   Biso      1.000     H          0.10561300000000001           
         H44       1.0000    0.26610   0.16400   0.19240   Biso      1.000     H          0.10115   
         H45       1.0000    0.97610   0.78690   0.05620   Biso      1.000     H          0.120797  
         H46       1.0000    0.93160   0.76970   0.15570   Biso      1.000     H          0.10340899999999999           
         H47       1.0000    0.28370   0.25110   0.39340   Biso      1.000     H          0.12898199999999999           
         H48       1.0000    0.35100   0.27570   0.29410   Biso      1.000     H          0.10546900000000001           
         H49       1.0000    0.34540   0.59990   0.35790   Biso      1.000     H          0.10816600000000001           
         H50       1.0000    0.71040   0.48410   0.44920   Biso      1.000     H          0.12775599999999998           
         H51       1.0000    0.73340   0.53420   0.34850   Biso      1.000     H          0.11351300000000002           
         H52       1.0000    0.94580   0.16440   0.13580   Biso      1.000     H          0.112352  
         H53       1.0000    0.04720   0.96890   0.59920   Biso      1.000     H          0.41149399999999997           
         H54       1.0000    0.33100   0.12150   0.63890   Biso      1.000     H          0.296657  
         H55       1.0000    0.01670   0.62320   0.40330   Biso      1.000     H          0.40981000000000006           
         H56       1.0000    0.84600   0.54770   0.09990   Biso      1.000     H          0.420422  
         H57       1.0000    0.28870   0.53400   0.10020   Biso      1.000     H          0.402887  
         H58       1.0000    0.95280   0.03110   0.40080   Biso      1.000     H          0.41149399999999997           
         H59       1.0000    0.71130   0.46600   0.89980   Biso      1.000     H          0.402887  
         H60       1.0000    0.15400   0.45230   0.90010   Biso      1.000     H          0.420422  
         N1        1.0000    0.45300   0.75100   0.70700   Biso      1.000     N          -0.253696           
         N2        1.0000    0.45700   0.42800   0.65700   Biso      1.000     N          -0.240511           
         N3        1.0000    0.06700   0.03600   0.84300   Biso      1.000     N          -0.24050300000000002          
         N4        1.0000    0.62200   0.89400   0.10600   Biso      1.000     N          -0.14169  
         N5        1.0000    0.35000   0.14100   0.60000   Biso      1.000     N          -0.14338900000000002          
         N6        1.0000    0.26600   0.96500   0.20400   Biso      1.000     N          -0.255879           
         N7        1.0000    0.54700   0.24900   0.29300   Biso      1.000     N          -0.253696           
         N8        1.0000    0.54300   0.57200   0.34300   Biso      1.000     N          -0.240511           
         N9        1.0000    0.93300   0.96400   0.15700   Biso      1.000     N          -0.240504           
         N10       1.0000    0.37800   0.10600   0.89400   Biso      1.000     N          -0.141691           
         N11       1.0000    0.73400   0.03500   0.79600   Biso      1.000     N          -0.255875           
         N12       1.0000    0.65000   0.85900   0.40000   Biso      1.000     N          -0.14339000000000002          
         O1        1.0000    0.25600   0.48200   0.76300   Biso      1.000     O          -0.819208           
         O2        1.0000    0.02300   0.52500   0.81600   Biso      1.000     O          -0.8551350000000001           
         O3        1.0000    0.20600   0.43000   0.87100   Biso      1.000     O          -0.714133           
         O4        1.0000    0.55700   0.44100   0.78800   Biso      1.000     O          -0.817716           
         O5        1.0000    0.64100   0.43300   0.88000   Biso      1.000     O          -0.685796           
         O6        1.0000    0.74000   0.60600   0.79100   Biso      1.000     O          -0.8431040000000001           
         O7        1.0000    0.29700   0.06700   0.71700   Biso      1.000     O          -0.819317           
         O8        1.0000    0.21600   0.67600   0.81700   Biso      1.000     O          -0.811949           
         O9        1.0000    0.50800   0.63400   0.84200   Biso      1.000     O          -0.844183           
         O10       1.0000    0.41300   0.93900   0.79800   Biso      1.000     O          -0.819938           
         O11       1.0000    0.83300   0.23700   0.67000   Biso      1.000     O          -0.8698469999999999           
         O12       1.0000    0.78400   0.32400   0.18300   Biso      1.000     O          -0.811948           
         O13       1.0000    0.97700   0.47500   0.18400   Biso      1.000     O          -0.8551350000000001           
         O14       1.0000    0.79400   0.57000   0.12900   Biso      1.000     O          -0.714133           
         O15       1.0000    0.74400   0.51800   0.23700   Biso      1.000     O          -0.819208           
         O16       1.0000    0.49200   0.36600   0.15800   Biso      1.000     O          -0.844183           
         O17       1.0000    0.44300   0.55900   0.21200   Biso      1.000     O          -0.817716           
         O18       1.0000    0.35900   0.56700   0.12000   Biso      1.000     O          -0.685796           
         O19       1.0000    0.26000   0.39400   0.20900   Biso      1.000     O          -0.8431040000000001           
         O20       1.0000    0.70300   0.93300   0.28300   Biso      1.000     O          -0.819318           
         O21       1.0000    0.58600   0.81100   0.22100   Biso      1.000     O          -0.825305           
         O22       1.0000    0.58700   0.06100   0.20200   Biso      1.000     O          -0.819939           
         O23       1.0000    0.45300   0.92600   0.29800   Biso      1.000     O          -0.8133670000000001           
         O24       1.0000    0.16700   0.76300   0.33000   Biso      1.000     O          -0.8698469999999999           
         O25       1.0000    0.54700   0.07400   0.70200   Biso      1.000     O          -0.813366           
         O26       1.0000    0.11100   0.58100   0.28400   Biso      1.000     O          -0.840267           
         O27       1.0000    0.96800   0.61400   0.37700   Biso      1.000     O          -0.713178           
         O28       1.0000    0.16400   0.07100   0.32500   Biso      1.000     O          -0.844324           
         O29       1.0000    0.98800   0.09800   0.25900   Biso      1.000     O          -0.8102600000000001           
         O30       1.0000    0.02500   0.28200   0.31200   Biso      1.000     O          -0.8329190000000001           
         O31       1.0000    0.91600   0.06200   0.36800   Biso      1.000     O          -0.706735           
         O32       1.0000    0.41400   0.18900   0.77900   Biso      1.000     O          -0.825306           
         O33       1.0000    0.08400   0.93800   0.63200   Biso      1.000     O          -0.706735           
         O34       1.0000    0.97500   0.71800   0.68800   Biso      1.000     O          -0.832918           
         O35       1.0000    0.01200   0.90200   0.74100   Biso      1.000     O          -0.8102590000000001           
         O36       1.0000    0.83600   0.92900   0.67500   Biso      1.000     O          -0.844324           
         O37       1.0000    0.03200   0.38600   0.62300   Biso      1.000     O          -0.713179           
         O38       1.0000    0.03900   0.22100   0.71600   Biso      1.000     O          -0.838089           
         O39       1.0000    0.88900   0.41900   0.71600   Biso      1.000     O          -0.840266           
         O40       1.0000    0.96100   0.77900   0.28400   Biso      1.000     O          -0.83809  
         P1        1.0000    0.17500   0.53300   0.81490   Biso      1.000     P          1.571515  
         P2        1.0000    0.97400   0.87000   0.68620   Biso      1.000     P          1.575274  
         P3        1.0000    0.61100   0.53100   0.82280   Biso      1.000     P          1.590537  
         P4        1.0000    0.94700   0.31300   0.68440   Biso      1.000     P          1.6338780000000002  
         P5        1.0000    0.38900   0.46900   0.17720   Biso      1.000     P          1.590537  
         P6        1.0000    0.58000   0.93400   0.25130   Biso      1.000     P          1.533459  
         P7        1.0000    0.02600   0.13000   0.31380   Biso      1.000     P          1.575275  
         P8        1.0000    0.05300   0.68700   0.31560   Biso      1.000     P          1.6338780000000002  
         P9        1.0000    0.82500   0.46700   0.18510   Biso      1.000     P          1.571515  
         P10       1.0000    0.42000   0.06600   0.74870   Biso      1.000     P          1.533458  
         Zn1       1.0000    0.39670   0.75110   0.79380   Biso      1.000     Zn          0.9636979999999999  
         Zn2       1.0000    0.42180   0.38670   0.74890   Biso      1.000     Zn          0.986777  
         Zn3       1.0000    0.73790   0.07100   0.70860   Biso      1.000     Zn          0.9807319999999999  
         Zn4       1.0000    0.08150   0.43660   0.24690   Biso      1.000     Zn          1.1294620000000002  
         Zn5       1.0000    0.89490   0.94490   0.24630   Biso      1.000     Zn          0.9802860000000001  
         Zn6       1.0000    0.57820   0.61330   0.25110   Biso      1.000     Zn          0.986777  
         Zn7       1.0000    0.26210   0.92900   0.29140   Biso      1.000     Zn          0.9807319999999999  
         Zn8       1.0000    0.60330   0.24890   0.20620   Biso      1.000     Zn          0.9636979999999999  
         Zn9       1.0000    0.10510   0.05510   0.75370   Biso      1.000     Zn          0.980284  
         Zn10      1.0000    0.91850   0.56340   0.75310   Biso      1.000     Zn          1.129461 