
##########################################################################
#               Crystallographic Information Format file
#               Produced by PyCifRW module
#
#  This is a CIF file.  CIF has been adopted by the International
#  Union of Crystallography as the standard for data archiving and
#  transmission.
#
#  For information on this file format, follow the CIF links at
#  http://www.iucr.org
##########################################################################

data_image0

_cell_length_a                          8.276
_cell_length_b                          14.36
_cell_length_c                          14.75
_cell_angle_alpha                       90
_cell_angle_beta                        90
_cell_angle_gamma                       99.746
_symmetry_space_group_name_H-M          'P 1'
_symmetry_int_tables_number             1
loop_
  _symmetry_equiv_pos_as_xyz
         'x, y, z' 
loop_
  _atom_site_label
  _atom_site_occupancy
  _atom_site_fract_x
  _atom_site_fract_y
  _atom_site_fract_z
  _atom_site_thermal_displace_type
  _atom_site_B_iso_or_equiv
  _atom_site_type_symbol
  _atom_site_charge
         C1        1.0000    0.03190   0.31300   0.98520   Biso      1.000     C          0.06789099999999999           
         C2        1.0000    0.46810   0.68700   0.48520   Biso      1.000     C          0.06789099999999999           
         C3        1.0000    0.35910   0.60760   0.46460   Biso      1.000     C          -0.22863000000000003          
         C4        1.0000    0.20040   0.59340   0.50100   Biso      1.000     C          0.175788  
         C5        1.0000    0.16420   0.66390   0.55230   Biso      1.000     C          -0.207702           
         C6        1.0000    0.27820   0.74300   0.56970   Biso      1.000     C          0.135968  
         C7        1.0000    0.08860   0.30030   0.68540   Biso      1.000     C          -0.447118           
         C8        1.0000    0.04940   0.21790   0.63030   Biso      1.000     C          -0.176817           
         C9        1.0000    0.85160   0.02410   0.90420   Biso      1.000     C          0.630997  
         C10       1.0000    0.60280   0.90150   0.77720   Biso      1.000     C          0.5483359999999999  
         C11       1.0000    0.84150   0.06780   0.61910   Biso      1.000     C          0.030701  
         C12       1.0000    0.94010   0.13390   0.67310   Biso      1.000     C          0.11051500000000002           
         C13       1.0000    0.93890   0.11860   0.76440   Biso      1.000     C          -0.156915           
         C14       1.0000    0.08350   0.50190   0.47860   Biso      1.000     C          -0.249331           
         C15       1.0000    0.83660   0.04050   0.80260   Biso      1.000     C          -0.051221           
         C16       1.0000    0.41650   0.49810   0.97860   Biso      1.000     C          -0.249331           
         C17       1.0000    0.14090   0.39240   0.96460   Biso      1.000     C          -0.22863000000000003          
         C18       1.0000    0.29960   0.40660   0.00100   Biso      1.000     C          0.175788  
         C19       1.0000    0.33580   0.33610   0.05230   Biso      1.000     C          -0.207702           
         C20       1.0000    0.22180   0.25700   0.06970   Biso      1.000     C          0.135968  
         C21       1.0000    0.41140   0.69970   0.18540   Biso      1.000     C          -0.44711899999999993          
         C22       1.0000    0.45060   0.78210   0.13030   Biso      1.000     C          -0.176818           
         C23       1.0000    0.64840   0.97590   0.40420   Biso      1.000     C          0.630997  
         C24       1.0000    0.89720   0.09850   0.27720   Biso      1.000     C          0.5483359999999999  
         C25       1.0000    0.65850   0.93220   0.11910   Biso      1.000     C          0.0307    
         C26       1.0000    0.76440   0.01920   0.24490   Biso      1.000     C          0.059025  
         C27       1.0000    0.66340   0.95950   0.30260   Biso      1.000     C          -0.05121799999999999          
         C28       1.0000    0.73560   0.98080   0.74490   Biso      1.000     C          0.059026  
         C29       1.0000    0.23560   0.98080   0.75510   Biso      1.000     C          0.059024  
         C30       1.0000    0.33660   0.04050   0.69740   Biso      1.000     C          -0.051217           
         C31       1.0000    0.43890   0.11860   0.73560   Biso      1.000     C          -0.156931           
         C32       1.0000    0.91650   0.49810   0.52140   Biso      1.000     C          -0.249331           
         C33       1.0000    0.53190   0.31300   0.51480   Biso      1.000     C          0.06789099999999999           
         C34       1.0000    0.64090   0.39240   0.53540   Biso      1.000     C          -0.22863000000000003          
         C35       1.0000    0.79960   0.40660   0.49900   Biso      1.000     C          0.175787  
         C36       1.0000    0.83580   0.33610   0.44770   Biso      1.000     C          -0.207702           
         C37       1.0000    0.72180   0.25700   0.43030   Biso      1.000     C          0.135967  
         C38       1.0000    0.91140   0.69970   0.31460   Biso      1.000     C          -0.44711899999999993          
         C39       1.0000    0.95060   0.78210   0.36970   Biso      1.000     C          -0.176817           
         C40       1.0000    0.14840   0.97590   0.09580   Biso      1.000     C          0.630997  
         C41       1.0000    0.39720   0.09850   0.22280   Biso      1.000     C          0.5483359999999999  
         C42       1.0000    0.15850   0.93220   0.38090   Biso      1.000     C          0.030701  
         C43       1.0000    0.05990   0.86610   0.32690   Biso      1.000     C          0.11051500000000002           
         C44       1.0000    0.06110   0.88140   0.23560   Biso      1.000     C          -0.156915           
         C45       1.0000    0.16340   0.95950   0.19740   Biso      1.000     C          -0.051221           
         C46       1.0000    0.26440   0.01920   0.25510   Biso      1.000     C          0.059026  
         C47       1.0000    0.58350   0.50190   0.02140   Biso      1.000     C          -0.249331           
         C48       1.0000    0.96810   0.68700   0.01480   Biso      1.000     C          0.06789099999999999           
         C49       1.0000    0.85910   0.60760   0.03540   Biso      1.000     C          -0.22863000000000003          
         C50       1.0000    0.70040   0.59340   0.99900   Biso      1.000     C          0.175788  
         C51       1.0000    0.66420   0.66390   0.94770   Biso      1.000     C          -0.207702           
         C52       1.0000    0.77820   0.74300   0.93030   Biso      1.000     C          0.135968  
         C53       1.0000    0.58860   0.30030   0.81460   Biso      1.000     C          -0.447118           
         C54       1.0000    0.54940   0.21790   0.86970   Biso      1.000     C          -0.176818           
         C55       1.0000    0.35160   0.02410   0.59580   Biso      1.000     C          0.630997  
         C56       1.0000    0.10280   0.90150   0.72280   Biso      1.000     C          0.548338  
         C57       1.0000    0.34150   0.06780   0.88090   Biso      1.000     C          0.0307    
         C58       1.0000    0.44010   0.13390   0.82690   Biso      1.000     C          0.110529  
         C59       1.0000    0.56110   0.88140   0.26440   Biso      1.000     C          -0.156931           
         C60       1.0000    0.55990   0.86610   0.17310   Biso      1.000     C          0.110529  
         Co1       1.0000    0.90725   0.12009   0.08239   Biso      1.000     Co          0.6838609999999999  
         Co2       1.0000    0.59275   0.87991   0.58239   Biso      1.000     Co          0.68386   
         Co3       1.0000    0.09275   0.87991   0.91761   Biso      1.000     Co          0.683859  
         Co4       1.0000    0.40725   0.12009   0.41761   Biso      1.000     Co          0.683856  
         H1        1.0000    0.86900   0.55150   0.50040   Biso      1.000     H          0.123254  
         H2        1.0000    0.05950   0.65910   0.57670   Biso      1.000     H          0.128774  
         H3        1.0000    0.24770   0.78990   0.60630   Biso      1.000     H          0.10605   
         H4        1.0000    0.98940   0.32110   0.70390   Biso      1.000     H          0.137851  
         H5        1.0000    0.15510   0.34950   0.65140   Biso      1.000     H          0.14176   
         H6        1.0000    0.14780   0.28570   0.73810   Biso      1.000     H          0.1368    
         H7        1.0000    0.15110   0.19820   0.61210   Biso      1.000     H          0.11690999999999999           
         H8        1.0000    0.99610   0.23510   0.57570   Biso      1.000     H          0.10063   
         H9        1.0000    0.84750   0.07510   0.55650   Biso      1.000     H          0.120308  
         H10       1.0000    0.00660   0.16050   0.80180   Biso      1.000     H          0.121218  
         H11       1.0000    0.92910   0.50350   0.58670   Biso      1.000     H          0.126919  
         H12       1.0000    0.36900   0.55150   0.99960   Biso      1.000     H          0.123254  
         H13       1.0000    0.10980   0.43760   0.92610   Biso      1.000     H          0.12673199999999998           
         H14       1.0000    0.39020   0.56240   0.42610   Biso      1.000     H          0.12673199999999998           
         H15       1.0000    0.44050   0.34090   0.07670   Biso      1.000     H          0.128774  
         H16       1.0000    0.25230   0.21010   0.10630   Biso      1.000     H          0.10605   
         H17       1.0000    0.51060   0.67890   0.20390   Biso      1.000     H          0.137852  
         H18       1.0000    0.34490   0.65050   0.15140   Biso      1.000     H          0.14176   
         H19       1.0000    0.35220   0.71430   0.23810   Biso      1.000     H          0.1368    
         H20       1.0000    0.34890   0.80180   0.11210   Biso      1.000     H          0.11691099999999999           
         H21       1.0000    0.50390   0.76490   0.07570   Biso      1.000     H          0.10063   
         H22       1.0000    0.65250   0.92490   0.05650   Biso      1.000     H          0.120308  
         H23       1.0000    0.49340   0.83950   0.30180   Biso      1.000     H          0.12121900000000001           
         H24       1.0000    0.92610   0.30680   0.96190   Biso      1.000     H          0.093361  
         H25       1.0000    0.57390   0.69320   0.46190   Biso      1.000     H          0.09336   
         H26       1.0000    0.42910   0.50350   0.91330   Biso      1.000     H          0.126919  
         H27       1.0000    0.07090   0.49650   0.41330   Biso      1.000     H          0.126919  
         H28       1.0000    0.42610   0.30680   0.53810   Biso      1.000     H          0.09336   
         H29       1.0000    0.13100   0.44850   0.49960   Biso      1.000     H          0.123254  
         H30       1.0000    0.94050   0.34090   0.42330   Biso      1.000     H          0.128774  
         H31       1.0000    0.75230   0.21010   0.39370   Biso      1.000     H          0.10605   
         H32       1.0000    0.01060   0.67890   0.29610   Biso      1.000     H          0.137851  
         H33       1.0000    0.84490   0.65050   0.34860   Biso      1.000     H          0.14176   
         H34       1.0000    0.85220   0.71430   0.26190   Biso      1.000     H          0.1368    
         H35       1.0000    0.84890   0.80180   0.38790   Biso      1.000     H          0.11690999999999999           
         H36       1.0000    0.00390   0.76490   0.42430   Biso      1.000     H          0.10063   
         H37       1.0000    0.15250   0.92490   0.44350   Biso      1.000     H          0.120308  
         H38       1.0000    0.99340   0.83950   0.19820   Biso      1.000     H          0.121218  
         H39       1.0000    0.57090   0.49650   0.08670   Biso      1.000     H          0.126919  
         H40       1.0000    0.60980   0.43760   0.57390   Biso      1.000     H          0.12673199999999998           
         H41       1.0000    0.07390   0.69320   0.03810   Biso      1.000     H          0.09336   
         H42       1.0000    0.89020   0.56240   0.07390   Biso      1.000     H          0.12673199999999998           
         H43       1.0000    0.55950   0.65910   0.92330   Biso      1.000     H          0.128774  
         H44       1.0000    0.74770   0.78990   0.89370   Biso      1.000     H          0.10605   
         H45       1.0000    0.48940   0.32110   0.79610   Biso      1.000     H          0.137851  
         H46       1.0000    0.65510   0.34950   0.84860   Biso      1.000     H          0.14176   
         H47       1.0000    0.64780   0.28570   0.76190   Biso      1.000     H          0.1368    
         H48       1.0000    0.65110   0.19820   0.88790   Biso      1.000     H          0.11690999999999999           
         H49       1.0000    0.49610   0.23510   0.92430   Biso      1.000     H          0.10063   
         H50       1.0000    0.34750   0.07510   0.94350   Biso      1.000     H          0.120308  
         H51       1.0000    0.50660   0.16050   0.69820   Biso      1.000     H          0.12121900000000001           
         H52       1.0000    0.63100   0.44850   0.00040   Biso      1.000     H          0.123254  
         N1        1.0000    0.56980   0.24400   0.46310   Biso      1.000     N          -0.187127           
         N2        1.0000    0.26230   0.00640   0.34680   Biso      1.000     N          -0.20620700000000003          
         N3        1.0000    0.23770   0.99360   0.84680   Biso      1.000     N          -0.20620700000000003          
         N4        1.0000    0.93020   0.75600   0.96310   Biso      1.000     N          -0.187128           
         N5        1.0000    0.73770   0.99360   0.65320   Biso      1.000     N          -0.20620700000000003          
         N6        1.0000    0.06980   0.24400   0.03690   Biso      1.000     N          -0.187129           
         N7        1.0000    0.76230   0.00640   0.15320   Biso      1.000     N          -0.206208           
         N8        1.0000    0.43020   0.75600   0.53690   Biso      1.000     N          -0.187128           
         O1        1.0000    0.43490   0.09980   0.14220   Biso      1.000     O          -0.513934           
         O2        1.0000    0.45900   0.15760   0.28290   Biso      1.000     O          -0.5371020000000001           
         O3        1.0000    0.32650   0.09100   0.54760   Biso      1.000     O          -0.518167           
         O4        1.0000    0.39340   0.94990   0.57060   Biso      1.000     O          -0.543373           
         O5        1.0000    0.06510   0.90020   0.64220   Biso      1.000     O          -0.513934           
         O6        1.0000    0.04100   0.84240   0.78290   Biso      1.000     O          -0.537104           
         O7        1.0000    0.82650   0.09100   0.95240   Biso      1.000     O          -0.518169           
         O8        1.0000    0.56510   0.90020   0.85780   Biso      1.000     O          -0.513934           
         O9        1.0000    0.54100   0.84240   0.71710   Biso      1.000     O          -0.5371020000000001           
         O10       1.0000    0.67350   0.90900   0.45240   Biso      1.000     O          -0.518169           
         O11       1.0000    0.60660   0.05010   0.42940   Biso      1.000     O          -0.5433720000000001           
         O12       1.0000    0.93490   0.09980   0.35780   Biso      1.000     O          -0.513934           
         O13       1.0000    0.95900   0.15760   0.21710   Biso      1.000     O          -0.537103           
         O14       1.0000    0.10660   0.05010   0.07060   Biso      1.000     O          -0.5433720000000001           
         O15       1.0000    0.89340   0.94990   0.92940   Biso      1.000     O          -0.543373           
         O16       1.0000    0.17350   0.90900   0.04760   Biso      1.000     O          -0.518169 