
##########################################################################
#               Crystallographic Information Format file
#               Produced by PyCifRW module
#
#  This is a CIF file.  CIF has been adopted by the International
#  Union of Crystallography as the standard for data archiving and
#  transmission.
#
#  For information on this file format, follow the CIF links at
#  http://www.iucr.org
##########################################################################

data_image0

_cell_length_a                          8.62
_cell_length_b                          10.238
_cell_length_c                          11.075
_cell_angle_alpha                       64.03
_cell_angle_beta                        71.59
_cell_angle_gamma                       80.34
_symmetry_space_group_name_H-M          'P 1'
_symmetry_int_tables_number             1
loop_
  _symmetry_equiv_pos_as_xyz
         'x, y, z' 
loop_
  _atom_site_label
  _atom_site_occupancy
  _atom_site_fract_x
  _atom_site_fract_y
  _atom_site_fract_z
  _atom_site_thermal_displace_type
  _atom_site_B_iso_or_equiv
  _atom_site_type_symbol
  _atom_site_charge
         C1        1.0000    0.42080   0.92330   0.64090   Biso      1.000     C          -0.08561  
         C2        1.0000    0.17820   0.54420   0.66250   Biso      1.000     C          0.547011  
         C3        1.0000    0.36780   0.42950   0.51010   Biso      1.000     C          -0.097466           
         C4        1.0000    0.47700   0.59080   0.56770   Biso      1.000     C          -0.102442           
         C5        1.0000    0.34380   0.52020   0.57920   Biso      1.000     C          -0.01745  
         C6        1.0000    0.93650   0.76520   0.94580   Biso      1.000     C          0.58384   
         C7        1.0000    0.00040   0.02360   0.86640   Biso      1.000     C          -0.08966  
         C8        1.0000    0.96900   0.86190   0.10860   Biso      1.000     C          -0.113504           
         C9        1.0000    0.97000   0.88670   0.97500   Biso      1.000     C          -0.012657           
         C10       1.0000    0.67670   0.77000   0.67940   Biso      1.000     C          0.56482   
         C11       1.0000    0.03000   0.11330   0.02500   Biso      1.000     C          -0.01266  
         C12       1.0000    0.03100   0.13810   0.89140   Biso      1.000     C          -0.113499           
         C13       1.0000    0.99960   0.97640   0.13360   Biso      1.000     C          -0.089654           
         C14       1.0000    0.06350   0.23480   0.05420   Biso      1.000     C          0.583822  
         C15       1.0000    0.65620   0.47980   0.42080   Biso      1.000     C          -0.017455           
         C16       1.0000    0.52300   0.40920   0.43230   Biso      1.000     C          -0.102435           
         C17       1.0000    0.63220   0.57050   0.48990   Biso      1.000     C          -0.097461           
         C18       1.0000    0.82180   0.45580   0.33750   Biso      1.000     C          0.547025  
         C19       1.0000    0.41590   0.10990   0.41280   Biso      1.000     C          -0.021865           
         C20       1.0000    0.33790   0.03280   0.55180   Biso      1.000     C          -0.084149           
         C21       1.0000    0.57920   0.07670   0.35910   Biso      1.000     C          -0.085601           
         C22       1.0000    0.32330   0.23000   0.32060   Biso      1.000     C          0.564806  
         C23       1.0000    0.58410   0.89010   0.58720   Biso      1.000     C          -0.021862           
         C24       1.0000    0.66210   0.96720   0.44820   Biso      1.000     C          -0.084154           
         Eu1       1.0000    0.86884   0.56260   0.84495   Biso      1.000     Eu          1.359327  
         Eu2       1.0000    0.13116   0.43740   0.15505   Biso      1.000     Eu          1.359341  
         H1        1.0000    0.94790   0.76800   0.18260   Biso      1.000     H          0.120744  
         H2        1.0000    0.00050   0.03940   0.77520   Biso      1.000     H          0.126281  
         H3        1.0000    0.46050   0.65330   0.61400   Biso      1.000     H          0.104951  
         H4        1.0000    0.27800   0.38190   0.51650   Biso      1.000     H          0.120106  
         H5        1.0000    0.77420   0.94540   0.41250   Biso      1.000     H          0.117339  
         H6        1.0000    0.63350   0.12790   0.26320   Biso      1.000     H          0.119018  
         H7        1.0000    0.05210   0.23200   0.81740   Biso      1.000     H          0.120744  
         H8        1.0000    0.99950   0.96060   0.22480   Biso      1.000     H          0.126279  
         H9        1.0000    0.53950   0.34670   0.38600   Biso      1.000     H          0.104949  
         H10       1.0000    0.72200   0.61810   0.48350   Biso      1.000     H          0.120105  
         H11       1.0000    0.22580   0.05460   0.58750   Biso      1.000     H          0.117339  
         H12       1.0000    0.36650   0.87210   0.73680   Biso      1.000     H          0.119017  
         O1        1.0000    0.94310   0.51600   0.33100   Biso      1.000     O          -0.503705           
         O2        1.0000    0.84120   0.37580   0.27130   Biso      1.000     O          -0.473382           
         O3        1.0000    0.12340   0.20160   0.15420   Biso      1.000     O          -0.503901           
         O4        1.0000    0.03070   0.36650   0.98220   Biso      1.000     O          -0.62041  
         O5        1.0000    0.60620   0.69790   0.80610   Biso      1.000     O          -0.544965           
         O6        1.0000    0.15880   0.62420   0.72870   Biso      1.000     O          -0.473376           
         O7        1.0000    0.05690   0.48400   0.66900   Biso      1.000     O          -0.5037   
         O8        1.0000    0.87660   0.79840   0.84580   Biso      1.000     O          -0.503905           
         O9        1.0000    0.96930   0.63350   0.01780   Biso      1.000     O          -0.620425           
         O10       1.0000    0.17840   0.25850   0.37430   Biso      1.000     O          -0.492269           
         O11       1.0000    0.82160   0.74150   0.62570   Biso      1.000     O          -0.492276           
         O12       1.0000    0.39380   0.30210   0.19390   Biso      1.000     O          -0.544967 