
##########################################################################
#               Crystallographic Information Format file
#               Produced by PyCifRW module
#
#  This is a CIF file.  CIF has been adopted by the International
#  Union of Crystallography as the standard for data archiving and
#  transmission.
#
#  For information on this file format, follow the CIF links at
#  http://www.iucr.org
##########################################################################

data_image0

_cell_length_a                          8.613
_cell_length_b                          10.122
_cell_length_c                          11.095
_cell_angle_alpha                       65.205
_cell_angle_beta                        71.609
_cell_angle_gamma                       78.617
_symmetry_space_group_name_H-M          'P 1'
_symmetry_int_tables_number             1
loop_
  _symmetry_equiv_pos_as_xyz
         'x, y, z' 
loop_
  _atom_site_label
  _atom_site_occupancy
  _atom_site_fract_x
  _atom_site_fract_y
  _atom_site_fract_z
  _atom_site_thermal_displace_type
  _atom_site_B_iso_or_equiv
  _atom_site_type_symbol
  _atom_site_charge
         C1        1.0000    0.16080   0.46080   0.94940   Biso      1.000     C          -0.08338  
         C2        1.0000    0.87070   0.92820   0.01180   Biso      1.000     C          -0.09366  
         C3        1.0000    0.97490   0.08910   0.07140   Biso      1.000     C          -0.095147           
         C4        1.0000    0.84540   0.01780   0.08200   Biso      1.000     C          -0.018051           
         C5        1.0000    0.67900   0.04110   0.16790   Biso      1.000     C          0.556639  
         C6        1.0000    0.49310   0.48500   0.62880   Biso      1.000     C          -0.097463           
         C7        1.0000    0.54360   0.63050   0.39150   Biso      1.000     C          -0.109926           
         C8        1.0000    0.53110   0.61350   0.52400   Biso      1.000     C          -0.006243           
         C9        1.0000    0.57140   0.73530   0.54960   Biso      1.000     C          0.588127  
         C10       1.0000    0.92000   0.43130   0.13660   Biso      1.000     C          -0.104254           
         C11       1.0000    0.42860   0.26470   0.45040   Biso      1.000     C          0.588057  
         C12       1.0000    0.46890   0.38650   0.47600   Biso      1.000     C          -0.006284           
         C13       1.0000    0.45640   0.36950   0.60850   Biso      1.000     C          -0.109898           
         C14       1.0000    0.50690   0.51500   0.37120   Biso      1.000     C          -0.097394           
         C15       1.0000    0.32100   0.95890   0.83210   Biso      1.000     C          0.55649   
         C16       1.0000    0.15460   0.98220   0.91800   Biso      1.000     C          -0.018051           
         C17       1.0000    0.02510   0.91090   0.92860   Biso      1.000     C          -0.095128           
         C18       1.0000    0.12930   0.07180   0.98820   Biso      1.000     C          -0.093634           
         C19       1.0000    0.82580   0.73360   0.81740   Biso      1.000     C          0.563818  
         C20       1.0000    0.91800   0.61160   0.91220   Biso      1.000     C          -0.005096           
         C21       1.0000    0.83920   0.53920   0.05060   Biso      1.000     C          -0.083357           
         C22       1.0000    0.08000   0.56870   0.86340   Biso      1.000     C          -0.104239           
         C23       1.0000    0.17420   0.26640   0.18260   Biso      1.000     C          0.563848  
         C24       1.0000    0.08200   0.38840   0.08780   Biso      1.000     C          -0.005111           
         Eu1       1.0000    0.36782   0.06061   0.34674   Biso      1.000     Eu          1.356792  
         Eu2       1.0000    0.63218   0.93939   0.65326   Biso      1.000     Eu          1.356765  
         H1        1.0000    0.57590   0.71690   0.31760   Biso      1.000     H          0.120919  
         H2        1.0000    0.49150   0.47320   0.71700   Biso      1.000     H          0.122931  
         H3        1.0000    0.95770   0.14840   0.12040   Biso      1.000     H          0.106496  
         H4        1.0000    0.78470   0.87940   0.02000   Biso      1.000     H          0.119563  
         H5        1.0000    0.27050   0.43450   0.91570   Biso      1.000     H          0.117476  
         H6        1.0000    0.13370   0.61410   0.77100   Biso      1.000     H          0.117747  
         H7        1.0000    0.42410   0.28310   0.68240   Biso      1.000     H          0.120905  
         H8        1.0000    0.50850   0.52680   0.28300   Biso      1.000     H          0.122928  
         H9        1.0000    0.04230   0.85160   0.87960   Biso      1.000     H          0.106502  
         H10       1.0000    0.21530   0.12060   0.98000   Biso      1.000     H          0.11956   
         H11       1.0000    0.72950   0.56550   0.08430   Biso      1.000     H          0.117485  
         H12       1.0000    0.86630   0.38590   0.22900   Biso      1.000     H          0.117759  
         O1        1.0000    0.43680   0.02480   0.82380   Biso      1.000     O          -0.507749           
         O2        1.0000    0.34430   0.87940   0.76530   Biso      1.000     O          -0.478523           
         O3        1.0000    0.36620   0.29640   0.35360   Biso      1.000     O          -0.496748           
         O4        1.0000    0.46320   0.13180   0.52200   Biso      1.000     O          -0.618533           
         O5        1.0000    0.32200   0.23540   0.13090   Biso      1.000     O          -0.502433           
         O6        1.0000    0.65570   0.12060   0.23470   Biso      1.000     O          -0.478635           
         O7        1.0000    0.56320   0.97520   0.17620   Biso      1.000     O          -0.507924           
         O8        1.0000    0.63380   0.70360   0.64640   Biso      1.000     O          -0.496692           
         O9        1.0000    0.53680   0.86820   0.47800   Biso      1.000     O          -0.618558           
         O10       1.0000    0.89880   0.79880   0.69590   Biso      1.000     O          -0.553032           
         O11       1.0000    0.10120   0.20120   0.30410   Biso      1.000     O          -0.553106           
         O12       1.0000    0.67800   0.76460   0.86910   Biso      1.000     O          -0.502559 