
##########################################################################
#               Crystallographic Information Format file
#               Produced by PyCifRW module
#
#  This is a CIF file.  CIF has been adopted by the International
#  Union of Crystallography as the standard for data archiving and
#  transmission.
#
#  For information on this file format, follow the CIF links at
#  http://www.iucr.org
##########################################################################

data_image0

_cell_length_a                          9.851
_cell_length_b                          14.822
_cell_length_c                          20.233
_cell_angle_alpha                       73.448
_cell_angle_beta                        82.987
_cell_angle_gamma                       77.721
_symmetry_space_group_name_H-M          'P 1'
_symmetry_int_tables_number             1
loop_
  _symmetry_equiv_pos_as_xyz
         'x, y, z' 
loop_
  _atom_site_label
  _atom_site_occupancy
  _atom_site_fract_x
  _atom_site_fract_y
  _atom_site_fract_z
  _atom_site_thermal_displace_type
  _atom_site_B_iso_or_equiv
  _atom_site_type_symbol
  _atom_site_charge
         Br1       1.0000    0.49768   0.42310   0.86421   Biso      1.000     Br          -0.389385           
         Br2       1.0000    0.62427   0.61691   0.94508   Biso      1.000     Br          -0.36951  
         Br3       1.0000    0.03741   0.49713   0.66214   Biso      1.000     Br          -0.326539           
         Br4       1.0000    0.21626   0.67564   0.72796   Biso      1.000     Br          -0.356269           
         Br5       1.0000    0.98271   0.81519   0.56345   Biso      1.000     Br          -0.431549           
         Br6       1.0000    0.50232   0.57690   0.13579   Biso      1.000     Br          -0.389385           
         Br7       1.0000    0.67271   0.37325   0.49180   Biso      1.000     Br          -0.363191           
         Br8       1.0000    0.96259   0.50287   0.33786   Biso      1.000     Br          -0.326538           
         Br9       1.0000    0.78374   0.32436   0.27204   Biso      1.000     Br          -0.356268           
         Br10      1.0000    0.32729   0.62675   0.50820   Biso      1.000     Br          -0.36319  
         Br11      1.0000    0.01729   0.18481   0.43655   Biso      1.000     Br          -0.43155  
         Br12      1.0000    0.37573   0.38309   0.05492   Biso      1.000     Br          -0.369511           
         C1        1.0000    0.72150   0.65820   0.72420   Biso      1.000     C          0.080024  
         C2        1.0000    0.80740   0.77250   0.75400   Biso      1.000     C          0.054459  
         C3        1.0000    0.67970   0.80760   0.78220   Biso      1.000     C          -0.084542           
         C4        1.0000    0.56580   0.76560   0.77920   Biso      1.000     C          -0.03477  
         C5        1.0000    0.59040   0.68990   0.74920   Biso      1.000     C          -0.130701           
         C6        1.0000    0.66400   0.89000   0.81300   Biso      1.000     C          0.704129  
         C7        1.0000    0.43640   0.92770   0.63170   Biso      1.000     C          -0.055228           
         C8        1.0000    0.88960   0.56650   0.14830   Biso      1.000     C          -0.121578           
         C9        1.0000    0.86180   0.66360   0.14520   Biso      1.000     C          -0.045635           
         C10       1.0000    0.97330   0.70850   0.14040   Biso      1.000     C          -0.073475           
         C11       1.0000    0.10680   0.65620   0.13790   Biso      1.000     C          0.05585   
         C12       1.0000    0.40180   0.97740   0.68740   Biso      1.000     C          0.593683  
         C13       1.0000    0.02350   0.52040   0.14380   Biso      1.000     C          0.072759  
         C14       1.0000    0.34100   0.87660   0.61980   Biso      1.000     C          0.060853  
         C15       1.0000    0.11740   0.25370   0.62590   Biso      1.000     C          -0.075146           
         C16       1.0000    0.58600   0.87420   0.54330   Biso      1.000     C          -0.124659           
         C17       1.0000    0.48590   0.82510   0.53680   Biso      1.000     C          0.073829  
         C18       1.0000    0.08230   0.18390   0.69050   Biso      1.000     C          0.680377  
         C19       1.0000    0.16930   0.38700   0.50670   Biso      1.000     C          0.081141  
         C20       1.0000    0.27250   0.34850   0.55070   Biso      1.000     C          -0.127763           
         C21       1.0000    0.95390   0.81300   0.13900   Biso      1.000     C          0.690901  
         C22       1.0000    0.01810   0.29800   0.57780   Biso      1.000     C          0.073626  
         C23       1.0000    0.55230   0.21030   0.77170   Biso      1.000     C          0.699741  
         C24       1.0000    0.55750   0.49400   0.65110   Biso      1.000     C          0.084369  
         C25       1.0000    0.68180   0.43480   0.66860   Biso      1.000     C          -0.122132           
         C26       1.0000    0.68410   0.34180   0.70760   Biso      1.000     C          -0.045149           
         C27       1.0000    0.55910   0.31020   0.72800   Biso      1.000     C          -0.075789           
         C28       1.0000    0.43740   0.37490   0.70870   Biso      1.000     C          0.065209  
         C29       1.0000    0.55910   0.92510   0.59190   Biso      1.000     C          -0.060701           
         C30       1.0000    0.88620   0.39900   0.04270   Biso      1.000     C          0.07265   
         C31       1.0000    0.56260   0.62510   0.29130   Biso      1.000     C          0.065208  
         C32       1.0000    0.99500   0.23640   0.07370   Biso      1.000     C          -0.055428           
         C33       1.0000    0.33600   0.11000   0.18700   Biso      1.000     C          0.704128  
         C34       1.0000    0.27850   0.34180   0.27580   Biso      1.000     C          0.080024  
         C35       1.0000    0.40960   0.31010   0.25080   Biso      1.000     C          -0.1307   
         C36       1.0000    0.43420   0.23440   0.22080   Biso      1.000     C          -0.03477  
         C37       1.0000    0.32030   0.19240   0.21780   Biso      1.000     C          -0.084544           
         C38       1.0000    0.19260   0.22750   0.24600   Biso      1.000     C          0.054462  
         C39       1.0000    0.59820   0.02260   0.31260   Biso      1.000     C          0.593683  
         C40       1.0000    0.65900   0.12340   0.38020   Biso      1.000     C          0.060853  
         C41       1.0000    0.56360   0.07230   0.36830   Biso      1.000     C          -0.055226           
         C42       1.0000    0.44090   0.07490   0.40810   Biso      1.000     C          -0.06071  
         C43       1.0000    0.41400   0.12580   0.45670   Biso      1.000     C          -0.124651           
         C44       1.0000    0.51410   0.17490   0.46320   Biso      1.000     C          0.073828  
         C45       1.0000    0.91770   0.81610   0.30950   Biso      1.000     C          0.680376  
         C46       1.0000    0.83070   0.61300   0.49330   Biso      1.000     C          0.08114   
         C47       1.0000    0.72750   0.65150   0.44930   Biso      1.000     C          -0.127763           
         C48       1.0000    0.75080   0.72160   0.38870   Biso      1.000     C          -0.036366           
         C49       1.0000    0.88260   0.74630   0.37410   Biso      1.000     C          -0.075145           
         C50       1.0000    0.98190   0.70200   0.42220   Biso      1.000     C          0.073625  
         C51       1.0000    0.44770   0.78970   0.22830   Biso      1.000     C          0.69974   
         C52       1.0000    0.44250   0.50600   0.34890   Biso      1.000     C          0.084369  
         C53       1.0000    0.31820   0.56520   0.33140   Biso      1.000     C          -0.122132           
         C54       1.0000    0.31590   0.65820   0.29240   Biso      1.000     C          -0.045149           
         C55       1.0000    0.44090   0.68980   0.27200   Biso      1.000     C          -0.075787           
         C56       1.0000    0.15820   0.88670   0.88480   Biso      1.000     C          0.686453  
         C57       1.0000    0.84180   0.11330   0.11520   Biso      1.000     C          0.686452  
         C58       1.0000    0.74900   0.28880   0.07960   Biso      1.000     C          0.071861  
         C59       1.0000    0.86410   0.21480   0.08880   Biso      1.000     C          -0.068534           
         C60       1.0000    0.00470   0.33190   0.04890   Biso      1.000     C          -0.123294           
         C61       1.0000    0.25100   0.71120   0.92040   Biso      1.000     C          0.071861  
         C62       1.0000    0.24920   0.27840   0.61130   Biso      1.000     C          -0.036366           
         C63       1.0000    0.00500   0.76360   0.92630   Biso      1.000     C          -0.055427           
         C64       1.0000    0.99530   0.66810   0.95110   Biso      1.000     C          -0.123305           
         C65       1.0000    0.11380   0.60100   0.95730   Biso      1.000     C          0.072662  
         C66       1.0000    0.04610   0.18700   0.86100   Biso      1.000     C          0.690899  
         C67       1.0000    0.89320   0.34380   0.86210   Biso      1.000     C          0.055847  
         C68       1.0000    0.02670   0.29150   0.85960   Biso      1.000     C          -0.07347  
         C69       1.0000    0.13820   0.33640   0.85480   Biso      1.000     C          -0.045634           
         C70       1.0000    0.11040   0.43350   0.85170   Biso      1.000     C          -0.121576           
         C71       1.0000    0.97650   0.47960   0.85620   Biso      1.000     C          0.072759  
         C72       1.0000    0.13590   0.78520   0.91120   Biso      1.000     C          -0.068534           
         Cu1       1.0000    0.98540   0.33135   0.32708   Biso      1.000     Cu          0.205591  
         Cu2       1.0000    0.09836   0.59986   0.55335   Biso      1.000     Cu          0.202593  
         Cu3       1.0000    0.74107   0.43905   0.34141   Biso      1.000     Cu          0.17262   
         Cu4       1.0000    0.59362   0.48721   0.05298   Biso      1.000     Cu          0.205927  
         Cu5       1.0000    0.32821   0.50302   0.11462   Biso      1.000     Cu          0.232893  
         Cu6       1.0000    0.77388   0.25655   0.42846   Biso      1.000     Cu          0.200536  
         Cu7       1.0000    0.22612   0.74345   0.57154   Biso      1.000     Cu          0.200534  
         Cu8       1.0000    0.90164   0.40014   0.44665   Biso      1.000     Cu          0.202595  
         Cu9       1.0000    0.25893   0.56095   0.65859   Biso      1.000     Cu          0.172618  
         Cu10      1.0000    0.40638   0.51279   0.94702   Biso      1.000     Cu          0.205927  
         Cu11      1.0000    0.67179   0.49698   0.88538   Biso      1.000     Cu          0.232893  
         Cu12      1.0000    0.01460   0.66865   0.67292   Biso      1.000     Cu          0.205591  
         H1        1.0000    0.50470   0.78930   0.50460   Biso      1.000     H          0.082956  
         H2        1.0000    0.18710   0.43260   0.46600   Biso      1.000     H          0.088539  
         H3        1.0000    0.35770   0.36850   0.54060   Biso      1.000     H          0.125945  
         H4        1.0000    0.31960   0.24880   0.64140   Biso      1.000     H          0.124123  
         H5        1.0000    0.93050   0.28140   0.58730   Biso      1.000     H          0.097976  
         H6        1.0000    0.76470   0.45730   0.65430   Biso      1.000     H          0.113948  
         H7        1.0000    0.76810   0.30090   0.72000   Biso      1.000     H          0.115409  
         H8        1.0000    0.92590   0.81140   0.92000   Biso      1.000     H          0.121426  
         H9        1.0000    0.33900   0.72710   0.91070   Biso      1.000     H          0.10062   
         H10       1.0000    0.90880   0.65010   0.96340   Biso      1.000     H          0.119042  
         H11       1.0000    0.10430   0.53720   0.97330   Biso      1.000     H          0.081655  
         H12       1.0000    0.81880   0.31340   0.86420   Biso      1.000     H          0.102779  
         H13       1.0000    0.22930   0.30280   0.85360   Biso      1.000     H          0.123252  
         H14       1.0000    0.18310   0.46660   0.84670   Biso      1.000     H          0.121563  
         H15       1.0000    0.96000   0.54400   0.85550   Biso      1.000     H          0.089051  
         H16       1.0000    0.66870   0.87270   0.51570   Biso      1.000     H          0.128851  
         H17       1.0000    0.35320   0.35390   0.72190   Biso      1.000     H          0.098958  
         H18       1.0000    0.62490   0.95820   0.59780   Biso      1.000     H          0.117812  
         H19       1.0000    0.55810   0.55600   0.62360   Biso      1.000     H          0.09341   
         H20       1.0000    0.88210   0.80120   0.75520   Biso      1.000     H          0.089177  
         H21       1.0000    0.26400   0.39420   0.29420   Biso      1.000     H          0.085383  
         H22       1.0000    0.48250   0.33930   0.25380   Biso      1.000     H          0.124398  
         H23       1.0000    0.25630   0.87830   0.64580   Biso      1.000     H          0.096774  
         H24       1.0000    0.11790   0.19880   0.24480   Biso      1.000     H          0.089176  
         H25       1.0000    0.74370   0.12170   0.35420   Biso      1.000     H          0.096775  
         H26       1.0000    0.37510   0.04180   0.40220   Biso      1.000     H          0.117813  
         H27       1.0000    0.33130   0.12730   0.48430   Biso      1.000     H          0.128851  
         H28       1.0000    0.49530   0.21070   0.49540   Biso      1.000     H          0.082955  
         H29       1.0000    0.81290   0.56740   0.53400   Biso      1.000     H          0.088539  
         H30       1.0000    0.64230   0.63150   0.45940   Biso      1.000     H          0.125944  
         H31       1.0000    0.68040   0.75120   0.35860   Biso      1.000     H          0.124123  
         H32       1.0000    0.06950   0.71860   0.41270   Biso      1.000     H          0.097976  
         H33       1.0000    0.44190   0.44400   0.37640   Biso      1.000     H          0.093409  
         H34       1.0000    0.52280   0.21200   0.20340   Biso      1.000     H          0.127127  
         H35       1.0000    0.23190   0.69910   0.28000   Biso      1.000     H          0.115409  
         H36       1.0000    0.23530   0.54270   0.34570   Biso      1.000     H          0.113948  
         H37       1.0000    0.47720   0.78800   0.79660   Biso      1.000     H          0.127127  
         H38       1.0000    0.51750   0.66070   0.74620   Biso      1.000     H          0.124398  
         H39       1.0000    0.73600   0.60580   0.70580   Biso      1.000     H          0.085382  
         H40       1.0000    0.81690   0.53340   0.15330   Biso      1.000     H          0.121563  
         H41       1.0000    0.77070   0.69720   0.14640   Biso      1.000     H          0.123251  
         H42       1.0000    0.04000   0.45600   0.14450   Biso      1.000     H          0.089051  
         H43       1.0000    0.89570   0.46280   0.02670   Biso      1.000     H          0.081656  
         H44       1.0000    0.09120   0.34990   0.03660   Biso      1.000     H          0.119041  
         H45       1.0000    0.07410   0.18860   0.08000   Biso      1.000     H          0.121426  
         H46       1.0000    0.66100   0.27290   0.08930   Biso      1.000     H          0.10062   
         H47       1.0000    0.64680   0.64610   0.27810   Biso      1.000     H          0.098958  
         H48       1.0000    0.18120   0.68660   0.13580   Biso      1.000     H          0.102778  
         N1        1.0000    0.16950   0.30090   0.27510   Biso      1.000     N          -0.163568           
         N2        1.0000    0.83050   0.69910   0.72490   Biso      1.000     N          -0.163567           
         N3        1.0000    0.63460   0.17420   0.42660   Biso      1.000     N          -0.15705  
         N4        1.0000    0.95850   0.63710   0.48120   Biso      1.000     N          -0.166522           
         N5        1.0000    0.56570   0.53370   0.32800   Biso      1.000     N          -0.15105  
         N6        1.0000    0.75740   0.38130   0.05760   Biso      1.000     N          -0.160179           
         N7        1.0000    0.13420   0.56290   0.13850   Biso      1.000     N          -0.179346           
         N8        1.0000    0.36540   0.82580   0.57340   Biso      1.000     N          -0.15705  
         N9        1.0000    0.24260   0.61870   0.94240   Biso      1.000     N          -0.160181           
         N10       1.0000    0.43430   0.46630   0.67200   Biso      1.000     N          -0.15105  
         N11       1.0000    0.86580   0.43710   0.86150   Biso      1.000     N          -0.179345           
         N12       1.0000    0.04150   0.36290   0.51880   Biso      1.000     N          -0.166522           
         O1        1.0000    0.69480   0.04790   0.26670   Biso      1.000     O          -0.668561           
         O2        1.0000    0.53280   0.96120   0.30840   Biso      1.000     O          -0.632043           
         O3        1.0000    0.82480   0.85620   0.26720   Biso      1.000     O          -0.695597           
         O4        1.0000    0.77170   0.91430   0.82190   Biso      1.000     O          -0.755937           
         O5        1.0000    0.04090   0.83290   0.29850   Biso      1.000     O          -0.71138  
         O6        1.0000    0.56250   0.81630   0.22190   Biso      1.000     O          -0.673498           
         O7        1.0000    0.33930   0.83900   0.20130   Biso      1.000     O          -0.739148           
         O8        1.0000    0.93630   0.04930   0.14460   Biso      1.000     O          -0.774403           
         O9        1.0000    0.72530   0.09600   0.10800   Biso      1.000     O          -0.636727           
         O10       1.0000    0.83390   0.86280   0.12620   Biso      1.000     O          -0.703254           
         O11       1.0000    0.05570   0.84080   0.15130   Biso      1.000     O          -0.686218           
         O12       1.0000    0.54370   0.93090   0.82680   Biso      1.000     O          -0.691101           
         O13       1.0000    0.30520   0.95210   0.73330   Biso      1.000     O          -0.668561           
         O14       1.0000    0.45630   0.06910   0.17320   Biso      1.000     O          -0.691101           
         O15       1.0000    0.17520   0.14380   0.73280   Biso      1.000     O          -0.695597           
         O16       1.0000    0.95910   0.16710   0.70150   Biso      1.000     O          -0.71138  
         O17       1.0000    0.43750   0.18370   0.77810   Biso      1.000     O          -0.673497           
         O18       1.0000    0.66070   0.16100   0.79870   Biso      1.000     O          -0.739148           
         O19       1.0000    0.06370   0.95070   0.85540   Biso      1.000     O          -0.774403           
         O20       1.0000    0.27470   0.90400   0.89200   Biso      1.000     O          -0.636727           
         O21       1.0000    0.16610   0.13720   0.87380   Biso      1.000     O          -0.703258           
         O22       1.0000    0.94430   0.15920   0.84870   Biso      1.000     O          -0.68622  
         O23       1.0000    0.22830   0.08570   0.17810   Biso      1.000     O          -0.755937           
         O24       1.0000    0.46720   0.03880   0.69160   Biso      1.000     O          -0.632044           
         Sm1       1.0000    0.12957   0.94780   0.20334   Biso      1.000     Sm          2.222806  
         Sm2       1.0000    0.66373   0.95299   0.18839   Biso      1.000     Sm          2.127864  
         Sm3       1.0000    0.87043   0.05220   0.79666   Biso      1.000     Sm          2.222808  
         Sm4       1.0000    0.33627   0.04701   0.81161   Biso      1.000     Sm          2.127866 