
##########################################################################
#               Crystallographic Information Format file
#               Produced by PyCifRW module
#
#  This is a CIF file.  CIF has been adopted by the International
#  Union of Crystallography as the standard for data archiving and
#  transmission.
#
#  For information on this file format, follow the CIF links at
#  http://www.iucr.org
##########################################################################

data_image0

_cell_length_a                          9.8116
_cell_length_b                          14.7661
_cell_length_c                          20.1753
_cell_angle_alpha                       73.213
_cell_angle_beta                        82.541
_cell_angle_gamma                       77.748
_symmetry_space_group_name_H-M          'P 1'
_symmetry_int_tables_number             1
loop_
  _symmetry_equiv_pos_as_xyz
         'x, y, z' 
loop_
  _atom_site_label
  _atom_site_occupancy
  _atom_site_fract_x
  _atom_site_fract_y
  _atom_site_fract_z
  _atom_site_thermal_displace_type
  _atom_site_B_iso_or_equiv
  _atom_site_type_symbol
  _atom_site_charge
         Br1       1.0000    0.33005   0.62786   0.50791   Biso      1.000     Br          -0.36148800000000003          
         Br2       1.0000    0.03804   0.49677   0.66219   Biso      1.000     Br          -0.32769699999999996          
         Br3       1.0000    0.98307   0.81511   0.56409   Biso      1.000     Br          -0.43203  
         Br4       1.0000    0.21733   0.67507   0.72822   Biso      1.000     Br          -0.35534699999999997          
         Br5       1.0000    0.62345   0.61616   0.94466   Biso      1.000     Br          -0.366193           
         Br6       1.0000    0.66995   0.37214   0.49209   Biso      1.000     Br          -0.36149000000000003          
         Br7       1.0000    0.49876   0.42175   0.86415   Biso      1.000     Br          -0.391914           
         Br8       1.0000    0.01693   0.18489   0.43591   Biso      1.000     Br          -0.432033           
         Br9       1.0000    0.78267   0.32493   0.27178   Biso      1.000     Br          -0.35535  
         Br10      1.0000    0.50124   0.57825   0.13585   Biso      1.000     Br          -0.391913           
         Br11      1.0000    0.37655   0.38384   0.05534   Biso      1.000     Br          -0.366193           
         Br12      1.0000    0.96196   0.50323   0.33781   Biso      1.000     Br          -0.32769899999999996          
         C1        1.0000    0.72790   0.65060   0.45040   Biso      1.000     C          -0.12500899999999998          
         C2        1.0000    0.91590   0.81810   0.30780   Biso      1.000     C          0.688685  
         C3        1.0000    0.88240   0.74600   0.37400   Biso      1.000     C          -0.075887           
         C4        1.0000    0.98280   0.70310   0.42150   Biso      1.000     C          0.067979  
         C5        1.0000    0.83490   0.61190   0.49430   Biso      1.000     C          0.075795  
         C6        1.0000    0.75150   0.72070   0.39000   Biso      1.000     C          -0.041141000000000004         
         C7        1.0000    0.58790   0.68970   0.75080   Biso      1.000     C          -0.127823           
         C8        1.0000    0.44040   0.69100   0.27160   Biso      1.000     C          -0.077394           
         C9        1.0000    0.56260   0.62670   0.29070   Biso      1.000     C          0.067102  
         C10       1.0000    0.43870   0.50740   0.34740   Biso      1.000     C          0.08430599999999999           
         C11       1.0000    0.31530   0.56730   0.33160   Biso      1.000     C          -0.12226600000000001          
         C12       1.0000    0.80750   0.77130   0.75510   Biso      1.000     C          0.055164  
         C13       1.0000    0.44730   0.79210   0.22840   Biso      1.000     C          0.702395  
         C14       1.0000    0.72170   0.65760   0.72580   Biso      1.000     C          0.08089500000000001           
         C15       1.0000    0.43580   0.92920   0.63140   Biso      1.000     C          -0.058591           
         C16       1.0000    0.67700   0.80830   0.78180   Biso      1.000     C          -0.084077           
         C17       1.0000    0.66130   0.89230   0.81130   Biso      1.000     C          0.706879  
         C18       1.0000    0.56110   0.92720   0.59130   Biso      1.000     C          -0.056172           
         C19       1.0000    0.58820   0.87460   0.54300   Biso      1.000     C          -0.125859           
         C20       1.0000    0.48780   0.82760   0.53610   Biso      1.000     C          0.07585599999999999           
         C21       1.0000    0.31500   0.65980   0.29240   Biso      1.000     C          -0.043112           
         C22       1.0000    0.40160   0.97910   0.68740   Biso      1.000     C          0.589454  
         C23       1.0000    0.24850   0.71260   0.91930   Biso      1.000     C          0.073681  
         C24       1.0000    0.11350   0.59810   0.95720   Biso      1.000     C          0.070451  
         C25       1.0000    0.99480   0.66580   0.94990   Biso      1.000     C          -0.123253           
         C26       1.0000    0.00240   0.76190   0.92440   Biso      1.000     C          -0.053952999999999994         
         C27       1.0000    0.13370   0.78530   0.91040   Biso      1.000     C          -0.07072200000000001          
         C28       1.0000    0.15160   0.88850   0.88240   Biso      1.000     C          0.6998880000000001  
         C29       1.0000    0.56570   0.76650   0.77860   Biso      1.000     C          -0.035156           
         C30       1.0000    0.95470   0.81590   0.14000   Biso      1.000     C          0.693706  
         C31       1.0000    0.84840   0.11150   0.11760   Biso      1.000     C          0.69989   
         C32       1.0000    0.10660   0.65870   0.13740   Biso      1.000     C          0.057453  
         C33       1.0000    0.24850   0.27930   0.61000   Biso      1.000     C          -0.041142000000000005         
         C34       1.0000    0.27210   0.34940   0.54960   Biso      1.000     C          -0.12500799999999998          
         C35       1.0000    0.16510   0.38810   0.50570   Biso      1.000     C          0.075794  
         C36       1.0000    0.01720   0.29690   0.57850   Biso      1.000     C          0.067978  
         C37       1.0000    0.11760   0.25400   0.62600   Biso      1.000     C          -0.075887           
         C38       1.0000    0.08410   0.18190   0.69220   Biso      1.000     C          0.688684  
         C39       1.0000    0.19250   0.22870   0.24490   Biso      1.000     C          0.055164  
         C40       1.0000    0.27830   0.34240   0.27420   Biso      1.000     C          0.08089199999999999           
         C41       1.0000    0.41210   0.31030   0.24920   Biso      1.000     C          -0.12782000000000002          
         C42       1.0000    0.43430   0.23350   0.22140   Biso      1.000     C          -0.035160000000000004         
         C43       1.0000    0.32300   0.19170   0.21820   Biso      1.000     C          -0.084074           
         C44       1.0000    0.33870   0.10770   0.18870   Biso      1.000     C          0.7068800000000001  
         C45       1.0000    0.43890   0.07280   0.40870   Biso      1.000     C          -0.056175           
         C46       1.0000    0.41180   0.12540   0.45700   Biso      1.000     C          -0.12586  
         C47       1.0000    0.51220   0.17240   0.46390   Biso      1.000     C          0.07585499999999999           
         C48       1.0000    0.65770   0.12260   0.37980   Biso      1.000     C          0.063327  
         C49       1.0000    0.56420   0.07080   0.36860   Biso      1.000     C          -0.058587           
         C50       1.0000    0.59840   0.02090   0.31260   Biso      1.000     C          0.589454  
         C51       1.0000    0.75150   0.28740   0.08070   Biso      1.000     C          0.07368   
         C52       1.0000    0.88650   0.40190   0.04280   Biso      1.000     C          0.070451  
         C53       1.0000    0.00520   0.33420   0.05010   Biso      1.000     C          -0.123253           
         C54       1.0000    0.99760   0.23810   0.07560   Biso      1.000     C          -0.053953999999999995         
         C55       1.0000    0.86630   0.21470   0.08960   Biso      1.000     C          -0.07072  
         C56       1.0000    0.13930   0.33270   0.85460   Biso      1.000     C          -0.04649  
         C57       1.0000    0.86070   0.66730   0.14540   Biso      1.000     C          -0.04649  
         C58       1.0000    0.88520   0.57030   0.14880   Biso      1.000     C          -0.12254200000000001          
         C59       1.0000    0.02130   0.52300   0.14480   Biso      1.000     C          0.07625499999999999           
         C60       1.0000    0.97350   0.71180   0.14040   Biso      1.000     C          -0.072775           
         C61       1.0000    0.11480   0.42970   0.85120   Biso      1.000     C          -0.12254100000000001          
         C62       1.0000    0.34230   0.87740   0.62020   Biso      1.000     C          0.063331  
         C63       1.0000    0.89340   0.34130   0.86260   Biso      1.000     C          0.057453  
         C64       1.0000    0.02650   0.28820   0.85960   Biso      1.000     C          -0.072774           
         C65       1.0000    0.04530   0.18410   0.86000   Biso      1.000     C          0.693706  
         C66       1.0000    0.68500   0.34020   0.70760   Biso      1.000     C          -0.043121           
         C67       1.0000    0.68470   0.43270   0.66840   Biso      1.000     C          -0.12227400000000001          
         C68       1.0000    0.56130   0.49260   0.65260   Biso      1.000     C          0.08432100000000001           
         C69       1.0000    0.43740   0.37330   0.70930   Biso      1.000     C          0.067101  
         C70       1.0000    0.55960   0.30900   0.72840   Biso      1.000     C          -0.077387           
         C71       1.0000    0.55270   0.20790   0.77160   Biso      1.000     C          0.702394  
         C72       1.0000    0.97870   0.47700   0.85520   Biso      1.000     C          0.076254  
         Cu1       1.0000    0.59103   0.48578   0.05367   Biso      1.000     Cu          0.204055  
         Cu2       1.0000    0.98478   0.33271   0.32572   Biso      1.000     Cu          0.206152  
         Cu3       1.0000    0.89987   0.39892   0.44703   Biso      1.000     Cu          0.203395  
         Cu4       1.0000    0.77255   0.25605   0.42780   Biso      1.000     Cu          0.201147  
         Cu5       1.0000    0.73999   0.43968   0.34138   Biso      1.000     Cu          0.17136600000000002           
         Cu6       1.0000    0.32627   0.50407   0.11508   Biso      1.000     Cu          0.23124499999999998           
         Cu7       1.0000    0.67373   0.49593   0.88492   Biso      1.000     Cu          0.231248  
         Cu8       1.0000    0.01522   0.66729   0.67428   Biso      1.000     Cu          0.206148  
         Cu9       1.0000    0.10013   0.60108   0.55297   Biso      1.000     Cu          0.203395  
         Cu10      1.0000    0.22745   0.74395   0.57220   Biso      1.000     Cu          0.201147  
         Cu11      1.0000    0.26001   0.56032   0.65862   Biso      1.000     Cu          0.171362  
         Cu12      1.0000    0.40897   0.51422   0.94633   Biso      1.000     Cu          0.204052  
         H1        1.0000    0.47640   0.79020   0.79520   Biso      1.000     H          0.123134  
         H2        1.0000    0.62680   0.96110   0.59680   Biso      1.000     H          0.117566  
         H3        1.0000    0.67250   0.87140   0.51600   Biso      1.000     H          0.128127  
         H4        1.0000    0.50620   0.79300   0.50300   Biso      1.000     H          0.083253  
         H5        1.0000    0.25800   0.87760   0.64730   Biso      1.000     H          0.095386  
         H6        1.0000    0.10540   0.53370   0.97380   Biso      1.000     H          0.085499  
         H7        1.0000    0.90810   0.64730   0.96210   Biso      1.000     H          0.115873  
         H8        1.0000    0.18870   0.46200   0.84630   Biso      1.000     H          0.123498  
         H9        1.0000    0.23020   0.29800   0.85350   Biso      1.000     H          0.1203    
         H10       1.0000    0.96250   0.54210   0.85300   Biso      1.000     H          0.08707000000000001           
         H11       1.0000    0.81780   0.31130   0.86500   Biso      1.000     H          0.10265899999999999           
         H12       1.0000    0.76880   0.29890   0.72020   Biso      1.000     H          0.113809  
         H13       1.0000    0.76860   0.45440   0.65260   Biso      1.000     H          0.11596500000000001           
         H14       1.0000    0.56270   0.55590   0.62700   Biso      1.000     H          0.093042  
         H15       1.0000    0.35270   0.35210   0.72280   Biso      1.000     H          0.09965800000000001           
         H16       1.0000    0.51450   0.66000   0.74880   Biso      1.000     H          0.12493299999999999           
         H17       1.0000    0.92220   0.80900   0.91710   Biso      1.000     H          0.121648  
         H18       1.0000    0.73670   0.60460   0.70800   Biso      1.000     H          0.083304  
         H19       1.0000    0.33650   0.72950   0.90890   Biso      1.000     H          0.099784  
         H20       1.0000    0.07030   0.72080   0.41100   Biso      1.000     H          0.098409  
         H21       1.0000    0.31970   0.24950   0.63960   Biso      1.000     H          0.123147  
         H22       1.0000    0.35760   0.36980   0.53870   Biso      1.000     H          0.125904  
         H23       1.0000    0.88300   0.79870   0.75760   Biso      1.000     H          0.089296  
         H24       1.0000    0.92970   0.27920   0.58900   Biso      1.000     H          0.098409  
         H25       1.0000    0.11700   0.20130   0.24240   Biso      1.000     H          0.089296  
         H26       1.0000    0.26330   0.39540   0.29200   Biso      1.000     H          0.08330499999999999           
         H27       1.0000    0.48550   0.34000   0.25120   Biso      1.000     H          0.12493299999999999           
         H28       1.0000    0.52360   0.20980   0.20480   Biso      1.000     H          0.123134  
         H29       1.0000    0.37320   0.03890   0.40320   Biso      1.000     H          0.117567  
         H30       1.0000    0.32750   0.12860   0.48400   Biso      1.000     H          0.128127  
         H31       1.0000    0.49380   0.20700   0.49700   Biso      1.000     H          0.083254  
         H32       1.0000    0.74200   0.12240   0.35270   Biso      1.000     H          0.095387  
         H33       1.0000    0.66350   0.27050   0.09110   Biso      1.000     H          0.099785  
         H34       1.0000    0.18140   0.43470   0.46480   Biso      1.000     H          0.08720499999999999           
         H35       1.0000    0.09190   0.35270   0.03790   Biso      1.000     H          0.115874  
         H36       1.0000    0.89460   0.46630   0.02620   Biso      1.000     H          0.085499  
         H37       1.0000    0.81860   0.56530   0.53520   Biso      1.000     H          0.08720499999999999           
         H38       1.0000    0.64240   0.63020   0.46130   Biso      1.000     H          0.125904  
         H39       1.0000    0.68030   0.75050   0.36040   Biso      1.000     H          0.12314800000000001           
         H40       1.0000    0.43730   0.44410   0.37300   Biso      1.000     H          0.093042  
         H41       1.0000    0.23140   0.54560   0.34740   Biso      1.000     H          0.11596500000000001           
         H42       1.0000    0.64730   0.64790   0.27720   Biso      1.000     H          0.09965800000000001           
         H43       1.0000    0.18220   0.68870   0.13500   Biso      1.000     H          0.10265899999999999           
         H44       1.0000    0.03750   0.45790   0.14700   Biso      1.000     H          0.08707000000000001           
         H45       1.0000    0.81130   0.53800   0.15370   Biso      1.000     H          0.123498  
         H46       1.0000    0.76980   0.70200   0.14650   Biso      1.000     H          0.1203    
         H47       1.0000    0.07780   0.19100   0.08290   Biso      1.000     H          0.12164900000000001           
         H48       1.0000    0.23120   0.70110   0.27980   Biso      1.000     H          0.11380799999999999           
         N1        1.0000    0.03880   0.36240   0.51860   Biso      1.000     N          -0.163141           
         N2        1.0000    0.96120   0.63760   0.48140   Biso      1.000     N          -0.163141           
         N3        1.0000    0.16900   0.30170   0.27410   Biso      1.000     N          -0.160276           
         N4        1.0000    0.63450   0.17260   0.42680   Biso      1.000     N          -0.16081199999999998          
         N5        1.0000    0.75800   0.38030   0.05830   Biso      1.000     N          -0.164056           
         N6        1.0000    0.13200   0.56570   0.13780   Biso      1.000     N          -0.175819           
         N7        1.0000    0.56430   0.53530   0.32770   Biso      1.000     N          -0.151198           
         N8        1.0000    0.83100   0.69830   0.72590   Biso      1.000     N          -0.160275           
         N9        1.0000    0.86800   0.43430   0.86220   Biso      1.000     N          -0.175819           
         N10       1.0000    0.24200   0.61970   0.94170   Biso      1.000     N          -0.16405699999999998          
         N11       1.0000    0.43570   0.46470   0.67230   Biso      1.000     N          -0.151199           
         N12       1.0000    0.36550   0.82740   0.57320   Biso      1.000     N          -0.16081199999999998          
         O1        1.0000    0.45970   0.06600   0.17490   Biso      1.000     O          -0.6921609999999999           
         O2        1.0000    0.23050   0.08330   0.17960   Biso      1.000     O          -0.756799           
         O3        1.0000    0.69650   0.04570   0.26650   Biso      1.000     O          -0.665914           
         O4        1.0000    0.03850   0.83550   0.29700   Biso      1.000     O          -0.717141           
         O5        1.0000    0.53180   0.95890   0.30960   Biso      1.000     O          -0.626371           
         O6        1.0000    0.94640   0.04970   0.14500   Biso      1.000     O          -0.768452           
         O7        1.0000    0.73200   0.09240   0.11260   Biso      1.000     O          -0.6425609999999999           
         O8        1.0000    0.83510   0.86710   0.12770   Biso      1.000     O          -0.7024050000000001           
         O9        1.0000    0.05760   0.84290   0.15310   Biso      1.000     O          -0.690117           
         O10       1.0000    0.33910   0.84190   0.20090   Biso      1.000     O          -0.743425           
         O11       1.0000    0.56240   0.81840   0.22190   Biso      1.000     O          -0.671214           
         O12       1.0000    0.82160   0.85660   0.26780   Biso      1.000     O          -0.681631           
         O13       1.0000    0.54030   0.93400   0.82510   Biso      1.000     O          -0.6921609999999999           
         O14       1.0000    0.17840   0.14340   0.73220   Biso      1.000     O          -0.681632           
         O15       1.0000    0.30350   0.95430   0.73350   Biso      1.000     O          -0.665914           
         O16       1.0000    0.46820   0.04110   0.69040   Biso      1.000     O          -0.626371           
         O17       1.0000    0.05360   0.95030   0.85500   Biso      1.000     O          -0.7684479999999999           
         O18       1.0000    0.26800   0.90760   0.88740   Biso      1.000     O          -0.6425569999999999           
         O19       1.0000    0.16490   0.13290   0.87230   Biso      1.000     O          -0.7024060000000001           
         O20       1.0000    0.94240   0.15710   0.84690   Biso      1.000     O          -0.690117           
         O21       1.0000    0.66090   0.15810   0.79910   Biso      1.000     O          -0.743425           
         O22       1.0000    0.43760   0.18160   0.77810   Biso      1.000     O          -0.671214           
         O23       1.0000    0.96150   0.16450   0.70300   Biso      1.000     O          -0.717141           
         O24       1.0000    0.76950   0.91670   0.82040   Biso      1.000     O          -0.756799           
         Tb1       1.0000    0.13180   0.94812   0.20358   Biso      1.000     Tb          2.215414  
         Tb2       1.0000    0.66412   0.95281   0.18985   Biso      1.000     Tb          2.1098689999999998  
         Tb3       1.0000    0.86820   0.05188   0.79642   Biso      1.000     Tb          2.2154130000000003  
         Tb4       1.0000    0.33588   0.04719   0.81015   Biso      1.000     Tb          2.109868 