
##########################################################################
#               Crystallographic Information Format file
#               Produced by PyCifRW module
#
#  This is a CIF file.  CIF has been adopted by the International
#  Union of Crystallography as the standard for data archiving and
#  transmission.
#
#  For information on this file format, follow the CIF links at
#  http://www.iucr.org
##########################################################################

data_image0

_cell_length_a                          7.453
_cell_length_b                          15.0032
_cell_length_c                          17.612
_cell_angle_alpha                       90
_cell_angle_beta                        91.2922
_cell_angle_gamma                       90
_symmetry_space_group_name_H-M          'P 1'
_symmetry_int_tables_number             1
loop_
  _symmetry_equiv_pos_as_xyz
         'x, y, z' 
loop_
  _atom_site_label
  _atom_site_occupancy
  _atom_site_fract_x
  _atom_site_fract_y
  _atom_site_fract_z
  _atom_site_thermal_displace_type
  _atom_site_B_iso_or_equiv
  _atom_site_type_symbol
  _atom_site_charge
         C1        1.0000    0.28676   0.42499   0.37479   Biso      1.000     C          -0.051301           
         C2        1.0000    0.69411   0.12315   0.79436   Biso      1.000     C          -0.103032           
         C3        1.0000    0.53723   0.16283   0.81896   Biso      1.000     C          0.079467  
         C4        1.0000    0.93450   0.26696   0.09118   Biso      1.000     C          -0.081348           
         C5        1.0000    0.81326   0.13652   0.11521   Biso      1.000     C          -0.019558           
         C6        1.0000    0.82037   0.22326   0.13749   Biso      1.000     C          -0.016112           
         C7        1.0000    0.48656   0.37049   0.45614   Biso      1.000     C          -0.061269           
         C8        1.0000    0.44017   0.37622   0.38117   Biso      1.000     C          -0.032759           
         C9        1.0000    0.47339   0.26006   0.28394   Biso      1.000     C          -0.129968           
         C10       1.0000    0.56643   0.22263   0.22430   Biso      1.000     C          -0.122315           
         C11       1.0000    0.72331   0.26231   0.19970   Biso      1.000     C          0.093857  
         C12       1.0000    0.78715   0.33942   0.23472   Biso      1.000     C          -0.162091           
         C13       1.0000    0.69411   0.37685   0.29436   Biso      1.000     C          -0.103033           
         C14       1.0000    0.53723   0.33717   0.31896   Biso      1.000     C          0.079467  
         C15       1.0000    0.18674   0.63652   0.38479   Biso      1.000     C          -0.019557           
         C16       1.0000    0.17963   0.72326   0.36251   Biso      1.000     C          -0.016121           
         C17       1.0000    0.71324   0.92499   0.12521   Biso      1.000     C          -0.051301           
         C18       1.0000    0.51344   0.87049   0.04386   Biso      1.000     C          -0.061269           
         C19       1.0000    0.78715   0.16058   0.73472   Biso      1.000     C          -0.162091           
         C20       1.0000    0.72331   0.23769   0.69970   Biso      1.000     C          0.093857  
         C21       1.0000    0.56643   0.27737   0.72430   Biso      1.000     C          -0.122317           
         C22       1.0000    0.47339   0.23994   0.78394   Biso      1.000     C          -0.129966           
         C23       1.0000    0.06550   0.73304   0.90882   Biso      1.000     C          -0.081348           
         C24       1.0000    0.18674   0.86348   0.88479   Biso      1.000     C          -0.019558           
         C25       1.0000    0.17963   0.77674   0.86251   Biso      1.000     C          -0.016112           
         C26       1.0000    0.71324   0.57501   0.62521   Biso      1.000     C          -0.051302           
         C27       1.0000    0.51344   0.62951   0.54386   Biso      1.000     C          -0.061268           
         C28       1.0000    0.55983   0.62378   0.61883   Biso      1.000     C          -0.032759           
         C29       1.0000    0.52661   0.73994   0.71606   Biso      1.000     C          -0.129968           
         C30       1.0000    0.43357   0.77737   0.77570   Biso      1.000     C          -0.122315           
         C31       1.0000    0.55983   0.87622   0.11883   Biso      1.000     C          -0.032759           
         C32       1.0000    0.27669   0.73769   0.80030   Biso      1.000     C          0.093857  
         C33       1.0000    0.30589   0.62315   0.70564   Biso      1.000     C          -0.103033           
         C34       1.0000    0.46277   0.66283   0.68104   Biso      1.000     C          0.079468  
         C35       1.0000    0.93450   0.23304   0.59118   Biso      1.000     C          -0.081349           
         C36       1.0000    0.81326   0.36348   0.61521   Biso      1.000     C          -0.019558           
         C37       1.0000    0.82037   0.27674   0.63749   Biso      1.000     C          -0.016112           
         C38       1.0000    0.28676   0.07501   0.87479   Biso      1.000     C          -0.051303           
         C39       1.0000    0.48656   0.12951   0.95614   Biso      1.000     C          -0.061268           
         C40       1.0000    0.44017   0.12378   0.88117   Biso      1.000     C          -0.032759           
         C41       1.0000    0.21285   0.66058   0.76528   Biso      1.000     C          -0.162091           
         C42       1.0000    0.52661   0.76006   0.21606   Biso      1.000     C          -0.129968           
         C43       1.0000    0.06550   0.76696   0.40882   Biso      1.000     C          -0.08134  
         C44       1.0000    0.27669   0.76231   0.30030   Biso      1.000     C          0.093858  
         C45       1.0000    0.21285   0.83942   0.26528   Biso      1.000     C          -0.162091           
         C46       1.0000    0.30589   0.87685   0.20564   Biso      1.000     C          -0.103032           
         C47       1.0000    0.46277   0.83717   0.18104   Biso      1.000     C          0.079468  
         C48       1.0000    0.43357   0.72263   0.27570   Biso      1.000     C          -0.122315           
         H1        1.0000    0.08013   0.21962   0.00121   Biso      1.000     H          0.294114  
         H2        1.0000    0.74384   0.09087   0.13767   Biso      1.000     H          0.135474  
         H3        1.0000    0.22437   0.43946   0.32880   Biso      1.000     H          0.142398  
         H4        1.0000    0.58825   0.34021   0.47694   Biso      1.000     H          0.128707  
         H5        1.0000    0.36617   0.23294   0.30075   Biso      1.000     H          0.123506  
         H6        1.0000    0.52281   0.16993   0.20036   Biso      1.000     H          0.129871  
         H7        1.0000    0.89437   0.36654   0.21791   Biso      1.000     H          0.123592  
         H8        1.0000    0.91987   0.71962   0.49879   Biso      1.000     H          0.294113  
         H9        1.0000    0.96462   0.32842   0.09391   Biso      1.000     H          0.12816   
         H10       1.0000    0.25616   0.59087   0.36233   Biso      1.000     H          0.135474  
         H11       1.0000    0.77563   0.93946   0.17120   Biso      1.000     H          0.142398  
         H12       1.0000    0.63892   0.92260   0.95029   Biso      1.000     H          0.279641  
         H13       1.0000    0.41175   0.84021   0.02306   Biso      1.000     H          0.128707  
         H14       1.0000    0.63383   0.73294   0.19925   Biso      1.000     H          0.123507  
         H15       1.0000    0.47719   0.66993   0.29964   Biso      1.000     H          0.129871  
         H16       1.0000    0.10563   0.86654   0.28209   Biso      1.000     H          0.123592  
         H17       1.0000    0.03538   0.82842   0.40609   Biso      1.000     H          0.12816   
         H18       1.0000    0.89437   0.13346   0.71791   Biso      1.000     H          0.123592  
         H19       1.0000    0.36108   0.42260   0.54971   Biso      1.000     H          0.279641  
         H20       1.0000    0.36617   0.26706   0.80075   Biso      1.000     H          0.123507  
         H21       1.0000    0.03538   0.67158   0.90609   Biso      1.000     H          0.128159  
         H22       1.0000    0.52281   0.33007   0.70036   Biso      1.000     H          0.129871  
         H23       1.0000    0.25616   0.90913   0.86233   Biso      1.000     H          0.135474  
         H24       1.0000    0.77563   0.56054   0.67120   Biso      1.000     H          0.142398  
         H25       1.0000    0.63892   0.57740   0.45029   Biso      1.000     H          0.279642  
         H26       1.0000    0.41175   0.65979   0.52306   Biso      1.000     H          0.128707  
         H27       1.0000    0.63383   0.76706   0.69925   Biso      1.000     H          0.123506  
         H28       1.0000    0.47719   0.83007   0.79964   Biso      1.000     H          0.129871  
         H29       1.0000    0.91987   0.78038   0.99879   Biso      1.000     H          0.294113  
         H30       1.0000    0.96462   0.17158   0.59391   Biso      1.000     H          0.12816   
         H31       1.0000    0.08013   0.28038   0.50121   Biso      1.000     H          0.294113  
         H32       1.0000    0.74384   0.40913   0.63767   Biso      1.000     H          0.135474  
         H33       1.0000    0.22437   0.06054   0.82880   Biso      1.000     H          0.142398  
         H34       1.0000    0.36108   0.07740   0.04971   Biso      1.000     H          0.279642  
         H35       1.0000    0.58825   0.15979   0.97694   Biso      1.000     H          0.128707  
         H36       1.0000    0.10563   0.63346   0.78209   Biso      1.000     H          0.123592  
         N1        1.0000    0.99792   0.20721   0.04028   Biso      1.000     N          -0.093086           
         N2        1.0000    0.92300   0.12660   0.05513   Biso      1.000     N          -0.147277           
         N3        1.0000    0.23834   0.44941   0.44582   Biso      1.000     N          -0.166352           
         N4        1.0000    0.36183   0.41573   0.49609   Biso      1.000     N          -0.090808           
         N5        1.0000    0.00208   0.70721   0.45972   Biso      1.000     N          -0.093087           
         N6        1.0000    0.07700   0.62660   0.44487   Biso      1.000     N          -0.147277           
         N7        1.0000    0.76166   0.94941   0.05418   Biso      1.000     N          -0.166352           
         N8        1.0000    0.99792   0.29279   0.54028   Biso      1.000     N          -0.093086           
         N9        1.0000    0.92300   0.37340   0.55513   Biso      1.000     N          -0.147277           
         N10       1.0000    0.63817   0.58427   0.50391   Biso      1.000     N          -0.090822           
         N11       1.0000    0.76166   0.55059   0.55418   Biso      1.000     N          -0.166339           
         N12       1.0000    0.00208   0.79279   0.95972   Biso      1.000     N          -0.093086           
         N13       1.0000    0.36183   0.08427   0.99609   Biso      1.000     N          -0.090822           
         N14       1.0000    0.07700   0.87340   0.94487   Biso      1.000     N          -0.147277           
         N15       1.0000    0.63817   0.91573   0.00391   Biso      1.000     N          -0.090808           
         N16       1.0000    0.23834   0.05059   0.94582   Biso      1.000     N          -0.166339           
         Ni1       1.0000    0.00000   0.00000   0.00000   Biso      1.000     Ni          0.683928  
         Ni2       1.0000    0.00000   0.50000   0.50000   Biso      1.000     Ni          0.683929  
         O1        1.0000    0.82129   0.45559   0.42184   Biso      1.000     O          -0.634536           
         O2        1.0000    0.17871   0.54441   0.57816   Biso      1.000     O          -0.634537           
         O3        1.0000    0.63206   0.95299   0.83404   Biso      1.000     O          -0.612066           
         O4        1.0000    0.94257   0.99313   0.79919   Biso      1.000     O          -0.609841           
         O5        1.0000    0.82129   0.04441   0.92184   Biso      1.000     O          -0.634536           
         O6        1.0000    0.63206   0.54701   0.33404   Biso      1.000     O          -0.612066           
         O7        1.0000    0.94257   0.50687   0.29919   Biso      1.000     O          -0.609841           
         O8        1.0000    0.36794   0.45299   0.66596   Biso      1.000     O          -0.612066           
         O9        1.0000    0.36794   0.04701   0.16596   Biso      1.000     O          -0.612066           
         O10       1.0000    0.05743   0.00687   0.20081   Biso      1.000     O          -0.609841           
         O11       1.0000    0.17871   0.95559   0.07816   Biso      1.000     O          -0.634536           
         O12       1.0000    0.05743   0.49313   0.70081   Biso      1.000     O          -0.609841           
         S1        1.0000    0.22461   0.97504   0.16104   Biso      1.000     S          1.132969  
         S2        1.0000    0.77539   0.47504   0.33896   Biso      1.000     S          1.13297   
         S3        1.0000    0.22461   0.52496   0.66104   Biso      1.000     S          1.13297   
         S4        1.0000    0.77539   0.02496   0.83896   Biso      1.000     S          1.132969 