
##########################################################################
#               Crystallographic Information Format file
#               Produced by PyCifRW module
#
#  This is a CIF file.  CIF has been adopted by the International
#  Union of Crystallography as the standard for data archiving and
#  transmission.
#
#  For information on this file format, follow the CIF links at
#  http://www.iucr.org
##########################################################################

data_image0

_cell_length_a                          9.119
_cell_length_b                          9.119
_cell_length_c                          14.4941
_cell_angle_alpha                       100.224
_cell_angle_beta                        100.224
_cell_angle_gamma                       115.832
_symmetry_space_group_name_H-M          'P 1'
_symmetry_int_tables_number             1
loop_
  _symmetry_equiv_pos_as_xyz
         'x, y, z' 
loop_
  _atom_site_label
  _atom_site_occupancy
  _atom_site_fract_x
  _atom_site_fract_y
  _atom_site_fract_z
  _atom_site_thermal_displace_type
  _atom_site_B_iso_or_equiv
  _atom_site_type_symbol
  _atom_site_charge
         C1        1.0000    0.78332   0.60376   0.56408   Biso      1.000     C          -0.309292           
         C2        1.0000    0.06507   0.24545   0.44172   Biso      1.000     C          0.7220810000000001  
         C3        1.0000    0.21668   0.39624   0.43592   Biso      1.000     C          -0.309292           
         C4        1.0000    0.80373   0.12335   0.05828   Biso      1.000     C          0.722234  
         C5        1.0000    0.96032   0.28076   0.06408   Biso      1.000     C          -0.311139           
         C6        1.0000    0.25455   0.43493   0.05828   Biso      1.000     C          0.7220770000000001  
         C7        1.0000    0.10376   0.28332   0.06408   Biso      1.000     C          -0.309243           
         C8        1.0000    0.62335   0.30373   0.55828   Biso      1.000     C          0.72223   
         C9        1.0000    0.78076   0.46032   0.56408   Biso      1.000     C          -0.31109000000000003          
         C10       1.0000    0.93493   0.75455   0.55828   Biso      1.000     C          0.7220810000000001  
         C11       1.0000    0.19627   0.87665   0.94172   Biso      1.000     C          0.722234  
         C12       1.0000    0.03968   0.71924   0.93592   Biso      1.000     C          -0.311139           
         C13       1.0000    0.74545   0.56507   0.94172   Biso      1.000     C          0.7220770000000001  
         C14       1.0000    0.89624   0.71668   0.93592   Biso      1.000     C          -0.309243           
         C15       1.0000    0.57480   0.92520   0.25000   Biso      1.000     C          0.528914  
         C16       1.0000    0.67520   0.82480   0.25000   Biso      1.000     C          0.525764  
         C17       1.0000    0.42520   0.07480   0.75000   Biso      1.000     C          0.528914  
         C18       1.0000    0.32480   0.17520   0.75000   Biso      1.000     C          0.525764  
         C19       1.0000    0.21924   0.53968   0.43592   Biso      1.000     C          -0.31109000000000003          
         C20       1.0000    0.37665   0.69627   0.44172   Biso      1.000     C          0.72223   
         Gd1       1.0000    0.74049   0.99049   0.48098   Biso      1.000     Gd          2.071183  
         Gd2       1.0000    0.50951   0.75951   0.01902   Biso      1.000     Gd          2.071183  
         Gd3       1.0000    0.25951   0.00951   0.51902   Biso      1.000     Gd          2.071183  
         Gd4       1.0000    0.49049   0.24049   0.98098   Biso      1.000     Gd          2.071183  
         H1        1.0000    0.92120   0.81120   0.99040   Biso      1.000     H          0.142323  
         H2        1.0000    0.85940   0.74240   0.87680   Biso      1.000     H          0.136731  
         H3        1.0000    0.17920   0.56920   0.49040   Biso      1.000     H          0.143318  
         H4        1.0000    0.31120   0.42120   0.49040   Biso      1.000     H          0.142326  
         H5        1.0000    0.24240   0.35940   0.37680   Biso      1.000     H          0.136733  
         H6        1.0000    0.93080   0.32080   0.00960   Biso      1.000     H          0.143321  
         H7        1.0000    0.13440   0.51740   0.37680   Biso      1.000     H          0.137037  
         H8        1.0000    0.07880   0.18880   0.00960   Biso      1.000     H          0.142323  
         H9        1.0000    0.14060   0.25760   0.12320   Biso      1.000     H          0.136731  
         H10       1.0000    0.82080   0.43080   0.50960   Biso      1.000     H          0.143318  
         H11       1.0000    0.86560   0.48260   0.62320   Biso      1.000     H          0.137037  
         H12       1.0000    0.68880   0.57880   0.50960   Biso      1.000     H          0.142326  
         H13       1.0000    0.75760   0.64060   0.62320   Biso      1.000     H          0.136733  
         H14       1.0000    0.06920   0.67920   0.99040   Biso      1.000     H          0.143321  
         H15       1.0000    0.98260   0.36560   0.12320   Biso      1.000     H          0.13704000000000002           
         H16       1.0000    0.01740   0.63440   0.87680   Biso      1.000     H          0.13704000000000002           
         O1        1.0000    0.73164   0.41966   0.92410   Biso      1.000     O          -0.622875           
         O2        1.0000    0.62601   0.16591   0.53292   Biso      1.000     O          -0.762401           
         O3        1.0000    0.43090   0.00810   0.66860   Biso      1.000     O          -0.607367           
         O4        1.0000    0.08034   0.76836   0.57590   Biso      1.000     O          -0.622876           
         O5        1.0000    0.90691   0.86701   0.53292   Biso      1.000     O          -0.761517           
         O6        1.0000    0.49190   0.06910   0.83140   Biso      1.000     O          -0.607367           
         O7        1.0000    0.19246   0.00444   0.92410   Biso      1.000     O          -0.62146  
         O8        1.0000    0.33409   0.87399   0.96708   Biso      1.000     O          -0.7624   
         O9        1.0000    0.49556   0.30754   0.57590   Biso      1.000     O          -0.621459           
         O10       1.0000    0.23770   0.16050   0.66860   Biso      1.000     O          -0.606247           
         O11       1.0000    0.66050   0.73770   0.16860   Biso      1.000     O          -0.606247           
         O12       1.0000    0.56910   0.99190   0.33140   Biso      1.000     O          -0.607367           
         O13       1.0000    0.26836   0.58034   0.07590   Biso      1.000     O          -0.622875           
         O14       1.0000    0.50810   0.93090   0.16860   Biso      1.000     O          -0.607367           
         O15       1.0000    0.66591   0.12601   0.03292   Biso      1.000     O          -0.7624   
         O16       1.0000    0.80754   0.99556   0.07590   Biso      1.000     O          -0.62146  
         O17       1.0000    0.76230   0.83950   0.33140   Biso      1.000     O          -0.606247           
         O18       1.0000    0.09309   0.13299   0.46708   Biso      1.000     O          -0.761517           
         O19       1.0000    0.91966   0.23164   0.42410   Biso      1.000     O          -0.622876           
         O20       1.0000    0.37399   0.83409   0.46708   Biso      1.000     O          -0.762401           
         O21       1.0000    0.50444   0.69246   0.42410   Biso      1.000     O          -0.621459           
         O22       1.0000    0.63299   0.59309   0.96708   Biso      1.000     O          -0.761517           
         O23       1.0000    0.36701   0.40691   0.03292   Biso      1.000     O          -0.761517           
         O24       1.0000    0.33950   0.26230   0.83140   Biso      1.000     O          -0.606247 