
##########################################################################
#               Crystallographic Information Format file
#               Produced by PyCifRW module
#
#  This is a CIF file.  CIF has been adopted by the International
#  Union of Crystallography as the standard for data archiving and
#  transmission.
#
#  For information on this file format, follow the CIF links at
#  http://www.iucr.org
##########################################################################

data_image0

_cell_length_a                          10.1792
_cell_length_b                          11.4268
_cell_length_c                          17.5193
_cell_angle_alpha                       90
_cell_angle_beta                        90
_cell_angle_gamma                       110.035
_symmetry_space_group_name_H-M          'P 1'
_symmetry_int_tables_number             1
loop_
  _symmetry_equiv_pos_as_xyz
         'x, y, z' 
loop_
  _atom_site_label
  _atom_site_occupancy
  _atom_site_fract_x
  _atom_site_fract_y
  _atom_site_fract_z
  _atom_site_thermal_displace_type
  _atom_site_B_iso_or_equiv
  _atom_site_type_symbol
  _atom_site_charge
         C1        1.0000    0.97670   0.50710   0.35680   Biso      1.000     C          -0.011344           
         C2        1.0000    0.98900   0.52040   0.22070   Biso      1.000     C          -0.00503  
         C3        1.0000    0.96110   0.45820   0.14330   Biso      1.000     C          0.6245390000000001  
         C4        1.0000    0.33840   0.23250   0.96030   Biso      1.000     C          -0.022059           
         C5        1.0000    0.36470   0.42220   0.89950   Biso      1.000     C          -0.040894           
         C6        1.0000    0.48260   0.26760   0.96910   Biso      1.000     C          -0.107877           
         C7        1.0000    0.50970   0.46120   0.90960   Biso      1.000     C          -0.131181           
         C8        1.0000    0.72490   0.42790   0.96190   Biso      1.000     C          0.634352  
         C9        1.0000    0.97670   0.00710   0.14320   Biso      1.000     C          -0.011343           
         C10       1.0000    0.09320   0.20020   0.20180   Biso      1.000     C          -0.023017           
         C11       1.0000    0.94700   0.95010   0.21320   Biso      1.000     C          -0.1219   
         C12       1.0000    0.06200   0.14730   0.27260   Biso      1.000     C          -0.120761           
         C13       1.0000    0.98900   0.02040   0.27930   Biso      1.000     C          -0.005029           
         C14       1.0000    0.96110   0.95820   0.35670   Biso      1.000     C          0.6245390000000001  
         C15       1.0000    0.66160   0.26750   0.46030   Biso      1.000     C          -0.022059           
         C16       1.0000    0.63530   0.07780   0.39950   Biso      1.000     C          -0.040894           
         C17       1.0000    0.51740   0.23240   0.46910   Biso      1.000     C          -0.107877           
         C18       1.0000    0.49030   0.03880   0.40960   Biso      1.000     C          -0.131181           
         C19       1.0000    0.06200   0.64730   0.22740   Biso      1.000     C          -0.12076300000000001          
         C20       1.0000    0.43010   0.11600   0.44540   Biso      1.000     C          -0.008673           
         C21       1.0000    0.94700   0.45010   0.28680   Biso      1.000     C          -0.12189900000000001          
         C22       1.0000    0.72490   0.92790   0.53810   Biso      1.000     C          0.634352  
         C23       1.0000    0.66160   0.76750   0.03970   Biso      1.000     C          -0.022059           
         C24       1.0000    0.63530   0.57780   0.10050   Biso      1.000     C          -0.040894           
         C25       1.0000    0.51740   0.73240   0.03090   Biso      1.000     C          -0.107877           
         C26       1.0000    0.49030   0.53880   0.09040   Biso      1.000     C          -0.131181           
         C27       1.0000    0.43010   0.61600   0.05460   Biso      1.000     C          -0.008673           
         C28       1.0000    0.27510   0.57210   0.03810   Biso      1.000     C          0.634352  
         C29       1.0000    0.02330   0.99290   0.85680   Biso      1.000     C          -0.011343           
         C30       1.0000    0.90680   0.79980   0.79820   Biso      1.000     C          -0.023017           
         C31       1.0000    0.05300   0.04990   0.78680   Biso      1.000     C          -0.1219   
         C32       1.0000    0.93800   0.85270   0.72740   Biso      1.000     C          -0.120761           
         C33       1.0000    0.01100   0.97960   0.72070   Biso      1.000     C          -0.005029           
         C34       1.0000    0.03890   0.04180   0.64330   Biso      1.000     C          0.6245390000000001  
         C35       1.0000    0.33840   0.73250   0.53970   Biso      1.000     C          -0.022059           
         C36       1.0000    0.36470   0.92220   0.60050   Biso      1.000     C          -0.040894           
         C37       1.0000    0.48260   0.76760   0.53090   Biso      1.000     C          -0.107877           
         C38       1.0000    0.50970   0.96120   0.59040   Biso      1.000     C          -0.131181           
         C39       1.0000    0.56990   0.88400   0.55460   Biso      1.000     C          -0.008673           
         C40       1.0000    0.09320   0.70020   0.29820   Biso      1.000     C          -0.023014           
         C41       1.0000    0.27510   0.07210   0.46190   Biso      1.000     C          0.634352  
         C42       1.0000    0.56990   0.38400   0.94540   Biso      1.000     C          -0.008673           
         C43       1.0000    0.90680   0.29980   0.70180   Biso      1.000     C          -0.023017           
         C44       1.0000    0.05300   0.54990   0.71320   Biso      1.000     C          -0.121903           
         C45       1.0000    0.93800   0.35270   0.77260   Biso      1.000     C          -0.120761           
         C46       1.0000    0.01100   0.47960   0.77930   Biso      1.000     C          -0.005028           
         C47       1.0000    0.03890   0.54180   0.85670   Biso      1.000     C          0.6245390000000001  
         C48       1.0000    0.02330   0.49290   0.64320   Biso      1.000     C          -0.011340000000000001         
         H1        1.0000    0.52070   0.21240   0.99110   Biso      1.000     H          0.15104700000000001           
         H2        1.0000    0.56580   0.53920   0.89220   Biso      1.000     H          0.141583  
         H3        1.0000    0.94550   0.96060   0.09900   Biso      1.000     H          0.12612   
         H4        1.0000    0.14390   0.28480   0.19750   Biso      1.000     H          0.13499   
         H5        1.0000    0.89900   0.86480   0.21640   Biso      1.000     H          0.14160899999999998           
         H6        1.0000    0.08960   0.19620   0.31610   Biso      1.000     H          0.141542  
         H7        1.0000    0.47930   0.28760   0.49110   Biso      1.000     H          0.15104700000000001           
         H8        1.0000    0.67570   0.02680   0.37450   Biso      1.000     H          0.139744  
         H9        1.0000    0.32430   0.47320   0.87450   Biso      1.000     H          0.139744  
         H10       1.0000    0.05450   0.53940   0.59900   Biso      1.000     H          0.12612   
         H11       1.0000    0.85610   0.21520   0.69750   Biso      1.000     H          0.13499   
         H12       1.0000    0.10100   0.63520   0.71640   Biso      1.000     H          0.14160899999999998           
         H13       1.0000    0.91040   0.30380   0.81610   Biso      1.000     H          0.141542  
         H14       1.0000    0.72000   0.34460   0.47780   Biso      1.000     H          0.13226500000000002           
         H15       1.0000    0.28000   0.15540   0.97780   Biso      1.000     H          0.13226500000000002           
         H16       1.0000    0.43420   0.96080   0.39220   Biso      1.000     H          0.141583  
         H17       1.0000    0.89900   0.36480   0.28360   Biso      1.000     H          0.14160899999999998           
         H18       1.0000    0.72000   0.84460   0.02220   Biso      1.000     H          0.13226500000000002           
         H19       1.0000    0.67570   0.52680   0.12550   Biso      1.000     H          0.139744  
         H20       1.0000    0.47930   0.78760   0.00890   Biso      1.000     H          0.15104700000000001           
         H21       1.0000    0.43420   0.46080   0.10780   Biso      1.000     H          0.141583  
         H22       1.0000    0.05450   0.03940   0.90100   Biso      1.000     H          0.12612   
         H23       1.0000    0.10100   0.13520   0.78360   Biso      1.000     H          0.14160899999999998           
         H24       1.0000    0.91040   0.80380   0.68390   Biso      1.000     H          0.141542  
         H25       1.0000    0.85610   0.71520   0.80250   Biso      1.000     H          0.13499   
         H26       1.0000    0.28000   0.65540   0.52220   Biso      1.000     H          0.13226500000000002           
         H27       1.0000    0.32430   0.97320   0.62550   Biso      1.000     H          0.139744  
         H28       1.0000    0.52070   0.71240   0.50890   Biso      1.000     H          0.15104700000000001           
         H29       1.0000    0.56580   0.03920   0.60780   Biso      1.000     H          0.141583  
         H30       1.0000    0.94550   0.46060   0.40100   Biso      1.000     H          0.12612   
         H31       1.0000    0.14390   0.78480   0.30250   Biso      1.000     H          0.13499   
         H32       1.0000    0.08960   0.69620   0.18390   Biso      1.000     H          0.141542  
         N1        1.0000    0.28440   0.31070   0.92620   Biso      1.000     N          0.362669  
         N2        1.0000    0.23190   0.90830   0.03250   Biso      1.000     N          0.754862  
         N3        1.0000    0.94900   0.86960   0.86240   Biso      1.000     N          0.374006  
         N4        1.0000    0.76810   0.59170   0.53250   Biso      1.000     N          0.754862  
         N5        1.0000    0.28440   0.81070   0.57380   Biso      1.000     N          0.362669  
         N6        1.0000    0.05100   0.63040   0.36240   Biso      1.000     N          0.374006  
         N7        1.0000    0.76810   0.09170   0.96750   Biso      1.000     N          0.754862  
         N8        1.0000    0.71560   0.68930   0.07380   Biso      1.000     N          0.362669  
         N9        1.0000    0.05100   0.13040   0.13760   Biso      1.000     N          0.374006  
         N10       1.0000    0.71560   0.18930   0.42620   Biso      1.000     N          0.362669  
         N11       1.0000    0.94900   0.36960   0.63760   Biso      1.000     N          0.374006  
         N12       1.0000    0.23190   0.40830   0.46750   Biso      1.000     N          0.754862  
         O1        1.0000    0.66660   0.00500   0.95190   Biso      1.000     O          -0.375906           
         O2        1.0000    0.08430   0.68140   0.43030   Biso      1.000     O          -0.591766           
         O3        1.0000    0.97450   0.52590   0.08480   Biso      1.000     O          -0.734206           
         O4        1.0000    0.93800   0.34440   0.13900   Biso      1.000     O          -0.607429           
         O5        1.0000    0.77270   0.84670   0.51390   Biso      1.000     O          -0.6430680000000001           
         O6        1.0000    0.79160   0.04240   0.54800   Biso      1.000     O          -0.669184           
         O7        1.0000    0.14550   0.77500   0.58100   Biso      1.000     O          -0.5785640000000001           
         O8        1.0000    0.79420   0.61980   0.46240   Biso      1.000     O          -0.542431           
         O9        1.0000    0.66660   0.50500   0.54810   Biso      1.000     O          -0.375906           
         O10       1.0000    0.91570   0.81860   0.93030   Biso      1.000     O          -0.591766           
         O11       1.0000    0.02550   0.97410   0.58480   Biso      1.000     O          -0.734206           
         O12       1.0000    0.06200   0.15560   0.63900   Biso      1.000     O          -0.607429           
         O13       1.0000    0.22730   0.65330   0.01390   Biso      1.000     O          -0.6430680000000001           
         O14       1.0000    0.85440   0.15730   0.91820   Biso      1.000     O          -0.5521020000000001           
         O15       1.0000    0.20840   0.45760   0.04800   Biso      1.000     O          -0.669184           
         O16       1.0000    0.85450   0.72500   0.08100   Biso      1.000     O          -0.5785640000000001           
         O17       1.0000    0.20580   0.88020   0.96240   Biso      1.000     O          -0.542431           
         O18       1.0000    0.85440   0.65730   0.58180   Biso      1.000     O          -0.5521020000000001           
         O19       1.0000    0.79420   0.11980   0.03760   Biso      1.000     O          -0.542431           
         O20       1.0000    0.33340   0.99500   0.04810   Biso      1.000     O          -0.375906           
         O21       1.0000    0.79160   0.54240   0.95200   Biso      1.000     O          -0.669184           
         O22       1.0000    0.14560   0.84270   0.08180   Biso      1.000     O          -0.5521020000000001           
         O23       1.0000    0.91570   0.31860   0.56970   Biso      1.000     O          -0.591766           
         O24       1.0000    0.02550   0.47410   0.91520   Biso      1.000     O          -0.734206           
         O25       1.0000    0.06200   0.65560   0.86100   Biso      1.000     O          -0.607429           
         O26       1.0000    0.22730   0.15330   0.48610   Biso      1.000     O          -0.6430680000000001           
         O27       1.0000    0.14550   0.27500   0.91900   Biso      1.000     O          -0.5785640000000001           
         O28       1.0000    0.85450   0.22500   0.41900   Biso      1.000     O          -0.5785640000000001           
         O29       1.0000    0.20840   0.95760   0.45200   Biso      1.000     O          -0.669184           
         O30       1.0000    0.14560   0.34270   0.41820   Biso      1.000     O          -0.5521020000000001           
         O31       1.0000    0.33340   0.49500   0.45190   Biso      1.000     O          -0.375906           
         O32       1.0000    0.08430   0.18140   0.06970   Biso      1.000     O          -0.591766           
         O33       1.0000    0.97450   0.02590   0.41520   Biso      1.000     O          -0.734206           
         O34       1.0000    0.93800   0.84440   0.36100   Biso      1.000     O          -0.607429           
         O35       1.0000    0.77270   0.34670   0.98610   Biso      1.000     O          -0.6430680000000001           
         O36       1.0000    0.20580   0.38020   0.53760   Biso      1.000     O          -0.542432           
         Tb1       1.0000    0.01038   0.68171   0.99275   Biso      1.000     Tb          2.028063  
         Tb2       1.0000    0.98962   0.81829   0.49275   Biso      1.000     Tb          2.028063  
         Tb3       1.0000    0.98962   0.31829   0.00725   Biso      1.000     Tb          2.028063  
         Tb4       1.0000    0.01038   0.18171   0.50725   Biso      1.000     Tb          2.028063 