
##########################################################################
#               Crystallographic Information Format file
#               Produced by PyCifRW module
#
#  This is a CIF file.  CIF has been adopted by the International
#  Union of Crystallography as the standard for data archiving and
#  transmission.
#
#  For information on this file format, follow the CIF links at
#  http://www.iucr.org
##########################################################################

data_image0

_cell_length_a                          9.6103
_cell_length_b                          11.531
_cell_length_c                          12.2
_cell_angle_alpha                       90
_cell_angle_beta                        99.03
_cell_angle_gamma                       90
_symmetry_space_group_name_H-M          'P 1'
_symmetry_int_tables_number             1
loop_
  _symmetry_equiv_pos_as_xyz
         'x, y, z' 
loop_
  _atom_site_label
  _atom_site_occupancy
  _atom_site_fract_x
  _atom_site_fract_y
  _atom_site_fract_z
  _atom_site_thermal_displace_type
  _atom_site_B_iso_or_equiv
  _atom_site_type_symbol
  _atom_site_charge
         C1        1.0000    0.19570   0.28590   0.29220   Biso      1.000     C          0.526681  
         C2        1.0000    0.56300   0.49930   0.04700   Biso      1.000     C          0.547625  
         C3        1.0000    0.99600   0.56610   0.00120   Biso      1.000     C          0.544378  
         C4        1.0000    0.29980   0.24150   0.21630   Biso      1.000     C          0.546519  
         C5        1.0000    0.79980   0.25850   0.71630   Biso      1.000     C          0.547496  
         C6        1.0000    0.69570   0.21410   0.79220   Biso      1.000     C          0.526953  
         C7        1.0000    0.49600   0.93390   0.50120   Biso      1.000     C          0.544275  
         C8        1.0000    0.06300   0.00070   0.54700   Biso      1.000     C          0.546561  
         C9        1.0000    0.70020   0.75850   0.78370   Biso      1.000     C          0.546887  
         C10       1.0000    0.80430   0.71410   0.70780   Biso      1.000     C          0.526874  
         C11       1.0000    0.00400   0.43390   0.99880   Biso      1.000     C          0.54399   
         C12       1.0000    0.43700   0.50070   0.95300   Biso      1.000     C          0.547906  
         C13       1.0000    0.20020   0.74150   0.28370   Biso      1.000     C          0.547108  
         C14       1.0000    0.30430   0.78590   0.20780   Biso      1.000     C          0.526659  
         C15       1.0000    0.50400   0.06610   0.49880   Biso      1.000     C          0.54439   
         C16       1.0000    0.93700   0.99930   0.45300   Biso      1.000     C          0.546402  
         Er1       1.0000    0.78491   0.98848   0.66702   Biso      1.000     Er          1.960761  
         Er2       1.0000    0.21509   0.01152   0.33298   Biso      1.000     Er          1.961506  
         Er3       1.0000    0.71509   0.48848   0.83298   Biso      1.000     Er          1.959692  
         Er4       1.0000    0.28491   0.51152   0.16702   Biso      1.000     Er          1.959987  
         O1        1.0000    0.13620   0.81710   0.32980   Biso      1.000     O          -0.518892           
         O2        1.0000    0.18860   0.63440   0.29210   Biso      1.000     O          -0.518341           
         O3        1.0000    0.32280   0.89300   0.20520   Biso      1.000     O          -0.505824           
         O4        1.0000    0.36230   0.70920   0.15670   Biso      1.000     O          -0.508666           
         O5        1.0000    0.41180   0.11770   0.43200   Biso      1.000     O          -0.529096           
         O6        1.0000    0.60280   0.11230   0.56250   Biso      1.000     O          -0.515495           
         O7        1.0000    0.96660   0.00780   0.35580   Biso      1.000     O          -0.500598           
         O8        1.0000    0.36380   0.31710   0.17020   Biso      1.000     O          -0.520961           
         O9        1.0000    0.31140   0.13440   0.20790   Biso      1.000     O          -0.517529           
         O10       1.0000    0.17720   0.39300   0.29480   Biso      1.000     O          -0.50307  
         O11       1.0000    0.13770   0.20920   0.34330   Biso      1.000     O          -0.511066           
         O12       1.0000    0.08820   0.61770   0.06800   Biso      1.000     O          -0.532239           
         O13       1.0000    0.89720   0.61230   0.93750   Biso      1.000     O          -0.51329  
         O14       1.0000    0.81780   0.98920   0.47840   Biso      1.000     O          -0.530052           
         O15       1.0000    0.31780   0.51080   0.97840   Biso      1.000     O          -0.524007           
         O16       1.0000    0.39720   0.88770   0.43750   Biso      1.000     O          -0.514901           
         O17       1.0000    0.10280   0.38770   0.06250   Biso      1.000     O          -0.513463           
         O18       1.0000    0.91180   0.38230   0.93200   Biso      1.000     O          -0.533337           
         O19       1.0000    0.86230   0.79080   0.65670   Biso      1.000     O          -0.505189           
         O20       1.0000    0.82280   0.60700   0.70520   Biso      1.000     O          -0.506639           
         O21       1.0000    0.68860   0.86560   0.79210   Biso      1.000     O          -0.519987           
         O22       1.0000    0.63620   0.68290   0.82980   Biso      1.000     O          -0.514246           
         O23       1.0000    0.18220   0.01080   0.52160   Biso      1.000     O          -0.529765           
         O24       1.0000    0.03340   0.99220   0.64420   Biso      1.000     O          -0.502536           
         O25       1.0000    0.53340   0.50780   0.14420   Biso      1.000     O          -0.505916           
         O26       1.0000    0.58820   0.88230   0.56800   Biso      1.000     O          -0.529991           
         O27       1.0000    0.63770   0.29080   0.84330   Biso      1.000     O          -0.505242           
         O28       1.0000    0.67720   0.10700   0.79480   Biso      1.000     O          -0.506223           
         O29       1.0000    0.81140   0.36560   0.70790   Biso      1.000     O          -0.519564           
         O30       1.0000    0.86380   0.18290   0.67020   Biso      1.000     O          -0.514264           
         O31       1.0000    0.46660   0.49220   0.85580   Biso      1.000     O          -0.507634           
         O32       1.0000    0.68220   0.48920   0.02160   Biso      1.000     O          -0.524626 