
##########################################################################
#               Crystallographic Information Format file
#               Produced by PyCifRW module
#
#  This is a CIF file.  CIF has been adopted by the International
#  Union of Crystallography as the standard for data archiving and
#  transmission.
#
#  For information on this file format, follow the CIF links at
#  http://www.iucr.org
##########################################################################

data_image0

_cell_length_a                          16.19
_cell_length_b                          16.4876
_cell_length_c                          16.4876
_cell_angle_alpha                       76.0511
_cell_angle_beta                        60.5953
_cell_angle_gamma                       60.5953
_symmetry_space_group_name_H-M          'P 1'
_symmetry_int_tables_number             1
loop_
  _symmetry_equiv_pos_as_xyz
         'x, y, z' 
loop_
  _atom_site_label
  _atom_site_occupancy
  _atom_site_fract_x
  _atom_site_fract_y
  _atom_site_fract_z
  _atom_site_thermal_displace_type
  _atom_site_B_iso_or_equiv
  _atom_site_type_symbol
  _atom_site_charge
         C1        1.0000    0.40870   0.60520   0.20280   Biso      1.000     C          0.033429  
         C2        1.0000    0.55420   0.25870   0.58570   Biso      1.000     C          0.242333  
         C3        1.0000    0.38830   0.17750   0.55170   Biso      1.000     C          0.577351  
         C4        1.0000    0.35550   0.01480   0.72420   Biso      1.000     C          0.576478  
         C5        1.0000    0.29680   0.16930   0.63070   Biso      1.000     C          0.02444   
         C6        1.0000    0.28330   0.10520   0.70280   Biso      1.000     C          0.034167  
         C7        1.0000    0.13070   0.21570   0.72310   Biso      1.000     C          0.222576  
         C8        1.0000    0.34960   0.45290   0.56950   Biso      1.000     C          0.561846  
         C9        1.0000    0.70230   0.25370   0.54950   Biso      1.000     C          0.042796  
         C10       1.0000    0.30550   0.46910   0.79370   Biso      1.000     C          0.572574  
         C11       1.0000    0.25180   0.45050   0.75370   Biso      1.000     C          0.042392  
         C12       1.0000    0.13990   0.41430   0.75870   Biso      1.000     C          0.246141  
         C13       1.0000    0.94000   0.44830   0.67750   Biso      1.000     C          0.580327  
         C14       1.0000    0.07970   0.27580   0.51480   Biso      1.000     C          0.580195  
         C15       1.0000    0.92750   0.36930   0.66930   Biso      1.000     C          0.033344  
         C16       1.0000    0.98610   0.29720   0.60520   Biso      1.000     C          0.038427  
         C17       1.0000    0.85380   0.27690   0.71570   Biso      1.000     C          0.22674   
         C18       1.0000    0.27230   0.44230   0.66350   Biso      1.000     C          0.039499  
         C19       1.0000    0.87200   0.04710   0.93050   Biso      1.000     C          0.558052  
         C20       1.0000    0.71460   0.16350   0.55770   Biso      1.000     C          0.040697  
         C21       1.0000    0.80250   0.06950   0.54710   Biso      1.000     C          0.560183  
         C22       1.0000    0.18710   0.91430   0.25870   Biso      1.000     C          0.249515  
         C23       1.0000    0.43420   0.94830   0.17750   Biso      1.000     C          0.578483  
         C24       1.0000    0.62970   0.77580   0.01480   Biso      1.000     C          0.579562  
         C25       1.0000    0.53390   0.86930   0.16930   Biso      1.000     C          0.035335  
         C26       1.0000    0.61150   0.79720   0.10520   Biso      1.000     C          0.038295  
         C27       1.0000    0.65360   0.77690   0.21570   Biso      1.000     C          0.226869  
         C28       1.0000    0.91910   0.43050   0.95290   Biso      1.000     C          0.558765  
         C29       1.0000    0.77460   0.29370   0.53090   Biso      1.000     C          0.571009  
         C30       1.0000    0.09920   0.20630   0.96910   Biso      1.000     C          0.570278  
         C31       1.0000    0.00550   0.24630   0.95050   Biso      1.000     C          0.047446  
         C32       1.0000    0.89860   0.24130   0.91430   Biso      1.000     C          0.249082  
         C33       1.0000    0.61750   0.32250   0.94830   Biso      1.000     C          0.578291  
         C34       1.0000    0.59450   0.48520   0.77580   Biso      1.000     C          0.57902   
         C35       1.0000    0.59680   0.33070   0.86930   Biso      1.000     C          0.035049  
         C36       1.0000    0.59130   0.39480   0.79720   Biso      1.000     C          0.036071  
         C37       1.0000    0.56950   0.28430   0.77690   Biso      1.000     C          0.220365  
         C38       1.0000    0.93580   0.33650   0.94230   Biso      1.000     C          0.042852  
         C39       1.0000    0.06830   0.03090   0.70630   Biso      1.000     C          0.575173  
         C40       1.0000    0.87810   0.05770   0.83650   Biso      1.000     C          0.049088  
         C41       1.0000    0.95600   0.04950   0.74630   Biso      1.000     C          0.048705  
         C42       1.0000    0.64450   0.98520   0.27580   Biso      1.000     C          0.576457  
         C43       1.0000    0.61170   0.82250   0.44830   Biso      1.000     C          0.577622  
         C44       1.0000    0.44580   0.74130   0.41430   Biso      1.000     C          0.245547  
         C45       1.0000    0.29770   0.74630   0.45050   Biso      1.000     C          0.047886  
         C46       1.0000    0.28540   0.83650   0.44230   Biso      1.000     C          0.042781  
         C47       1.0000    0.22540   0.70630   0.46910   Biso      1.000     C          0.570953  
         C48       1.0000    0.19750   0.93050   0.45290   Biso      1.000     C          0.559848  
         C49       1.0000    0.70320   0.83070   0.36930   Biso      1.000     C          0.02483   
         C50       1.0000    0.43050   0.71570   0.22310   Biso      1.000     C          0.216567  
         C51       1.0000    0.40550   0.51480   0.22420   Biso      1.000     C          0.579272  
         C52       1.0000    0.38250   0.67750   0.05170   Biso      1.000     C          0.579582  
         C53       1.0000    0.10140   0.75870   0.08570   Biso      1.000     C          0.242543  
         C54       1.0000    0.99450   0.75370   0.04950   Biso      1.000     C          0.040898  
         C55       1.0000    0.06420   0.66350   0.05770   Biso      1.000     C          0.037498  
         C56       1.0000    0.90080   0.79370   0.03090   Biso      1.000     C          0.570143  
         C57       1.0000    0.08090   0.56950   0.04710   Biso      1.000     C          0.559007  
         C58       1.0000    0.40320   0.66930   0.13070   Biso      1.000     C          0.026256  
         C59       1.0000    0.71670   0.89480   0.29720   Biso      1.000     C          0.033113  
         C60       1.0000    0.86930   0.78430   0.27690   Biso      1.000     C          0.222611  
         C61       1.0000    0.65040   0.54710   0.43050   Biso      1.000     C          0.561508  
         C62       1.0000    0.81290   0.08570   0.74130   Biso      1.000     C          0.249171  
         C63       1.0000    0.56580   0.05170   0.82250   Biso      1.000     C          0.577862  
         C64       1.0000    0.37030   0.22420   0.98520   Biso      1.000     C          0.579677  
         C65       1.0000    0.46610   0.13070   0.83070   Biso      1.000     C          0.034025  
         C66       1.0000    0.38850   0.20280   0.89480   Biso      1.000     C          0.03775   
         C67       1.0000    0.34640   0.22310   0.78430   Biso      1.000     C          0.226073  
         C68       1.0000    0.93170   0.96910   0.29370   Biso      1.000     C          0.57363   
         C69       1.0000    0.12800   0.95290   0.06950   Biso      1.000     C          0.556247  
         C70       1.0000    0.14620   0.72310   0.28430   Biso      1.000     C          0.225838  
         C71       1.0000    0.01390   0.70280   0.39480   Biso      1.000     C          0.03886   
         C72       1.0000    0.07250   0.63070   0.33070   Biso      1.000     C          0.027612  
         C73       1.0000    0.92030   0.72420   0.48520   Biso      1.000     C          0.580283  
         C74       1.0000    0.06000   0.55170   0.32250   Biso      1.000     C          0.580668  
         C75       1.0000    0.86010   0.58570   0.24130   Biso      1.000     C          0.247509  
         C76       1.0000    0.74820   0.54950   0.24630   Biso      1.000     C          0.043516  
         C77       1.0000    0.72770   0.55770   0.33650   Biso      1.000     C          0.041561  
         C78       1.0000    0.69450   0.53090   0.20630   Biso      1.000     C          0.572178  
         C79       1.0000    0.04400   0.95050   0.25370   Biso      1.000     C          0.046678  
         C80       1.0000    0.12190   0.94230   0.16350   Biso      1.000     C          0.045811  
         Eu1       1.0000    0.61660   0.12156   0.96842   Biso      1.000     Eu          1.323406  
         Eu2       1.0000    0.38340   0.87844   0.03158   Biso      1.000     Eu          1.32392   
         Eu3       1.0000    0.14929   0.38627   0.97671   Biso      1.000     Eu          1.272449  
         Eu4       1.0000    0.20658   0.37844   0.53157   Biso      1.000     Eu          1.322759  
         Eu5       1.0000    0.01227   0.11373   0.52329   Biso      1.000     Eu          1.271561  
         Eu6       1.0000    0.58502   0.03157   0.62157   Biso      1.000     Eu          1.321626  
         Eu7       1.0000    0.12600   0.02329   0.88627   Biso      1.000     Eu          1.276401  
         Eu8       1.0000    0.73815   0.46843   0.87844   Biso      1.000     Eu          1.32334   
         Eu9       1.0000    0.53556   0.47671   0.61373   Biso      1.000     Eu          1.27284   
         Eu10      1.0000    0.85071   0.61373   0.02329   Biso      1.000     Eu          1.27218   
         Eu11      1.0000    0.79342   0.62156   0.46843   Biso      1.000     Eu          1.321381  
         Eu12      1.0000    0.98773   0.88627   0.47671   Biso      1.000     Eu          1.273475  
         Eu13      1.0000    0.41498   0.96843   0.37843   Biso      1.000     Eu          1.321798  
         Eu14      1.0000    0.87400   0.97671   0.11373   Biso      1.000     Eu          1.273215  
         Eu15      1.0000    0.26185   0.53157   0.12156   Biso      1.000     Eu          1.322977  
         Eu16      1.0000    0.46444   0.52329   0.38627   Biso      1.000     Eu          1.273677  
         H1        1.0000    0.13540   0.78170   0.09930   Biso      1.000     H          0.074459  
         H2        1.0000    0.44130   0.75160   0.24920   Biso      1.000     H          0.07499   
         H3        1.0000    0.76530   0.09930   0.71830   Biso      1.000     H          0.076046  
         H4        1.0000    0.30950   0.24920   0.74840   Biso      1.000     H          0.073073  
         H5        1.0000    0.51640   0.71830   0.40070   Biso      1.000     H          0.076995  
         H6        1.0000    0.94210   0.74840   0.25080   Biso      1.000     H          0.073942  
         H7        1.0000    0.91710   0.59930   0.21830   Biso      1.000     H          0.076341  
         H8        1.0000    0.23470   0.90070   0.28170   Biso      1.000     H          0.076268  
         H9        1.0000    0.69050   0.75080   0.25160   Biso      1.000     H          0.073265  
         H10       1.0000    0.19290   0.74920   0.24840   Biso      1.000     H          0.072958  
         H11       1.0000    0.55870   0.24840   0.75080   Biso      1.000     H          0.075354  
         H12       1.0000    0.48360   0.28170   0.59930   Biso      1.000     H          0.076867  
         H13       1.0000    0.05790   0.25160   0.74920   Biso      1.000     H          0.073817  
         H14       1.0000    0.08290   0.40070   0.78170   Biso      1.000     H          0.076256  
         H15       1.0000    0.80710   0.25080   0.75160   Biso      1.000     H          0.073327  
         H16       1.0000    0.86460   0.21830   0.90070   Biso      1.000     H          0.075125  
         N1        1.0000    0.21450   0.91750   0.16790   Biso      1.000     N          -0.399688           
         N2        1.0000    0.83240   0.56790   0.18650   Biso      1.000     N          -0.373973           
         N3        1.0000    0.08680   0.93210   0.31350   Biso      1.000     N          -0.373561           
         N4        1.0000    0.15790   0.64500   0.25960   Biso      1.000     N          -0.398886           
         N5        1.0000    0.06220   0.76010   0.36450   Biso      1.000     N          -0.357242           
         N6        1.0000    0.79990   0.58250   0.33210   Biso      1.000     N          -0.399899           
         N7        1.0000    0.80290   0.75960   0.35500   Biso      1.000     N          -0.400607           
         N8        1.0000    0.01890   0.81350   0.06790   Biso      1.000     N          -0.371748           
         N9        1.0000    0.38240   0.83210   0.41750   Biso      1.000     N          -0.40014  
         N10       1.0000    0.40030   0.68650   0.43210   Biso      1.000     N          -0.372257           
         N11       1.0000    0.41750   0.74040   0.14500   Biso      1.000     N          -0.396936           
         N12       1.0000    0.42670   0.63550   0.26010   Biso      1.000     N          -0.353964           
         N13       1.0000    0.13200   0.66790   0.08250   Biso      1.000     N          -0.39981  
         N14       1.0000    0.68680   0.73990   0.13550   Biso      1.000     N          -0.356473           
         N15       1.0000    0.82230   0.86450   0.23990   Biso      1.000     N          -0.352879           
         N16       1.0000    0.56250   0.85500   0.24040   Biso      1.000     N          -0.402695           
         N17       1.0000    0.98110   0.18650   0.93210   Biso      1.000     N          -0.374689           
         N18       1.0000    0.86800   0.33210   0.91750   Biso      1.000     N          -0.400188           
         N19       1.0000    0.31320   0.26010   0.86450   Biso      1.000     N          -0.356317           
         N20       1.0000    0.78550   0.08250   0.83210   Biso      1.000     N          -0.400018           
         N21       1.0000    0.91320   0.06790   0.68650   Biso      1.000     N          -0.373971           
         N22       1.0000    0.84210   0.35500   0.74040   Biso      1.000     N          -0.4026   
         N23       1.0000    0.93780   0.23990   0.63550   Biso      1.000     N          -0.356093           
         N24       1.0000    0.20010   0.41750   0.66790   Biso      1.000     N          -0.399063           
         N25       1.0000    0.43750   0.14500   0.75960   Biso      1.000     N          -0.403137           
         N26       1.0000    0.19710   0.24040   0.64500   Biso      1.000     N          -0.39762  
         N27       1.0000    0.17770   0.13550   0.76010   Biso      1.000     N          -0.350798           
         N28       1.0000    0.61760   0.16790   0.58250   Biso      1.000     N          -0.400372           
         N29       1.0000    0.59970   0.31350   0.56790   Biso      1.000     N          -0.371133           
         N30       1.0000    0.58250   0.25960   0.85500   Biso      1.000     N          -0.402064           
         N31       1.0000    0.57330   0.36450   0.73990   Biso      1.000     N          -0.353425           
         N32       1.0000    0.16760   0.43210   0.81350   Biso      1.000     N          -0.373924           
         O1        1.0000    0.72870   0.54250   0.11770   Biso      1.000     O          -0.497518           
         O2        1.0000    0.89600   0.79200   0.52980   Biso      1.000     O          -0.461514           
         O3        1.0000    0.86630   0.67920   0.51860   Biso      1.000     O          -0.511296           
         O4        1.0000    0.13960   0.49080   0.26080   Biso      1.000     O          -0.515066           
         O5        1.0000    0.97570   0.54580   0.37280   Biso      1.000     O          -0.527595           
         O6        1.0000    0.04580   0.98540   0.05600   Biso      1.000     O          -0.561674           
         O7        1.0000    0.88890   0.95750   0.38230   Biso      1.000     O          -0.508114           
         O8        1.0000    0.88580   0.99440   0.24420   Biso      1.000     O          -0.490794           
         O9        1.0000    0.71780   0.70800   0.97020   Biso      1.000     O          -0.462986           
         O10       1.0000    0.56410   0.82080   0.98140   Biso      1.000     O          -0.514423           
         O11       1.0000    0.39120   0.00920   0.23920   Biso      1.000     O          -0.512713           
         O12       1.0000    0.62440   0.50560   0.25580   Biso      1.000     O          -0.493934           
         O13       1.0000    0.21880   0.93110   0.00110   Biso      1.000     O          -0.54411  
         O14       1.0000    0.65100   0.56890   0.49890   Biso      1.000     O          -0.551067           
         O15       1.0000    0.21990   0.99890   0.43110   Biso      1.000     O          -0.547748           
         O16       1.0000    0.52150   0.87280   0.45420   Biso      1.000     O          -0.524676           
         O17       1.0000    0.63040   0.76080   0.50920   Biso      1.000     O          -0.504765           
         O18       1.0000    0.54550   0.01860   0.32080   Biso      1.000     O          -0.510845           
         O19       1.0000    0.68800   0.02980   0.20800   Biso      1.000     O          -0.458584           
         O20       1.0000    0.27120   0.61770   0.45750   Biso      1.000     O          -0.502136           
         O21       1.0000    0.13000   0.75580   0.49440   Biso      1.000     O          -0.499248           
         O22       1.0000    0.39430   0.95420   0.12720   Biso      1.000     O          -0.538136           
         O23       1.0000    0.10180   0.94400   0.48540   Biso      1.000     O          -0.567387           
         O24       1.0000    0.34850   0.62720   0.04580   Biso      1.000     O          -0.52678  
         O25       1.0000    0.40040   0.73920   0.99080   Biso      1.000     O          -0.51572  
         O26       1.0000    0.38490   0.48140   0.17920   Biso      1.000     O          -0.507369           
         O27       1.0000    0.42580   0.47020   0.29200   Biso      1.000     O          -0.464123           
         O28       1.0000    0.84640   0.88230   0.04250   Biso      1.000     O          -0.500318           
         O29       1.0000    0.88020   0.74420   0.00560   Biso      1.000     O          -0.492015           
         O30       1.0000    0.58720   0.51460   0.44400   Biso      1.000     O          -0.568828           
         O31       1.0000    0.96880   0.44400   0.98540   Biso      1.000     O          -0.568609           
         O32       1.0000    0.60570   0.04580   0.87280   Biso      1.000     O          -0.536173           
         O33       1.0000    0.11980   0.25580   0.99440   Biso      1.000     O          -0.495666           
         O34       1.0000    0.14990   0.50110   0.06890   Biso      1.000     O          -0.54597  
         O35       1.0000    0.60880   0.99080   0.76080   Biso      1.000     O          -0.508073           
         O36       1.0000    0.43590   0.17920   0.01860   Biso      1.000     O          -0.517177           
         O37       1.0000    0.28220   0.29200   0.02980   Biso      1.000     O          -0.462427           
         O38       1.0000    0.11110   0.04250   0.61770   Biso      1.000     O          -0.501259           
         O39       1.0000    0.11420   0.00560   0.75580   Biso      1.000     O          -0.509008           
         O40       1.0000    0.78120   0.06890   0.99890   Biso      1.000     O          -0.553482           
         O41       1.0000    0.95420   0.01460   0.94400   Biso      1.000     O          -0.580044           
         O42       1.0000    0.02430   0.45420   0.62720   Biso      1.000     O          -0.539469           
         O43       1.0000    0.86040   0.50920   0.73920   Biso      1.000     O          -0.515044           
         O44       1.0000    0.13370   0.32080   0.48140   Biso      1.000     O          -0.515745           
         O45       1.0000    0.10400   0.20800   0.47020   Biso      1.000     O          -0.460706           
         O46       1.0000    0.27130   0.45750   0.88230   Biso      1.000     O          -0.497695           
         O47       1.0000    0.37560   0.49440   0.74420   Biso      1.000     O          -0.494066           
         O48       1.0000    0.34900   0.43110   0.50110   Biso      1.000     O          -0.549967           
         O49       1.0000    0.41280   0.48540   0.55600   Biso      1.000     O          -0.567687           
         O50       1.0000    0.47850   0.12720   0.54580   Biso      1.000     O          -0.521431           
         O51       1.0000    0.36960   0.23920   0.49080   Biso      1.000     O          -0.501887           
         O52       1.0000    0.45450   0.98140   0.67920   Biso      1.000     O          -0.507076           
         O53       1.0000    0.31200   0.97020   0.79200   Biso      1.000     O          -0.460937           
         O54       1.0000    0.72880   0.38230   0.54250   Biso      1.000     O          -0.499075           
         O55       1.0000    0.87000   0.24420   0.50560   Biso      1.000     O          -0.497492           
         O56       1.0000    0.78010   0.00110   0.56890   Biso      1.000     O          -0.548744           
         O57       1.0000    0.89820   0.05600   0.51460   Biso      1.000     O          -0.567139           
         O58       1.0000    0.65150   0.37280   0.95420   Biso      1.000     O          -0.537224           
         O59       1.0000    0.59960   0.26080   0.00920   Biso      1.000     O          -0.51017  
         O60       1.0000    0.61510   0.51860   0.82080   Biso      1.000     O          -0.513833           
         O61       1.0000    0.57420   0.52980   0.70800   Biso      1.000     O          -0.46264  
         O62       1.0000    0.15360   0.11770   0.95750   Biso      1.000     O          -0.50335  
         O63       1.0000    0.85010   0.49890   0.93110   Biso      1.000     O          -0.546344           
         O64       1.0000    0.03120   0.55600   0.01460   Biso      1.000     O          -0.565943 