
##########################################################################
#               Crystallographic Information Format file
#               Produced by PyCifRW module
#
#  This is a CIF file.  CIF has been adopted by the International
#  Union of Crystallography as the standard for data archiving and
#  transmission.
#
#  For information on this file format, follow the CIF links at
#  http://www.iucr.org
##########################################################################

data_image0

_cell_length_a                          16.226
_cell_length_b                          16.5641
_cell_length_c                          16.5641
_cell_angle_alpha                       76.1195
_cell_angle_beta                        60.673
_cell_angle_gamma                       60.673
_symmetry_space_group_name_H-M          'P 1'
_symmetry_int_tables_number             1
loop_
  _symmetry_equiv_pos_as_xyz
         'x, y, z' 
loop_
  _atom_site_label
  _atom_site_occupancy
  _atom_site_fract_x
  _atom_site_fract_y
  _atom_site_fract_z
  _atom_site_thermal_displace_type
  _atom_site_B_iso_or_equiv
  _atom_site_type_symbol
  _atom_site_charge
         C1        1.0000    0.51470   0.39370   0.70270   Biso      1.000     C          -0.00372  
         C2        1.0000    0.19460   0.20600   0.53060   Biso      1.000     C          0.650195  
         C3        1.0000    0.15110   0.42950   0.54690   Biso      1.000     C          0.627016  
         C4        1.0000    0.24810   0.24650   0.54830   Biso      1.000     C          0.018545  
         C5        1.0000    0.22790   0.33630   0.55710   Biso      1.000     C          0.002645  
         C6        1.0000    0.36030   0.24090   0.58530   Biso      1.000     C          0.2293    
         C7        1.0000    0.11320   0.44760   0.82100   Biso      1.000     C          0.644715  
         C8        1.0000    0.14450   0.27610   0.98410   Biso      1.000     C          0.664421  
         C9        1.0000    0.20520   0.36750   0.82950   Biso      1.000     C          -0.039603           
         C10       1.0000    0.21740   0.29730   0.89370   Biso      1.000     C          -0.003733           
         C11       1.0000    0.36880   0.27740   0.78280   Biso      1.000     C          0.215385  
         C12       1.0000    0.59940   0.96940   0.20600   Biso      1.000     C          0.650195  
         C13       1.0000    0.92900   0.22260   0.71720   Biso      1.000     C          0.215404  
         C14       1.0000    0.41940   0.95310   0.42950   Biso      1.000     C          0.627017  
         C15       1.0000    0.43580   0.94290   0.33630   Biso      1.000     C          0.002644  
         C16       1.0000    0.39880   0.91470   0.24090   Biso      1.000     C          0.2293    
         C17       1.0000    0.43920   0.67900   0.44760   Biso      1.000     C          0.644717  
         C18       1.0000    0.57940   0.51590   0.27610   Biso      1.000     C          0.664422  
         C19       1.0000    0.42730   0.67050   0.36750   Biso      1.000     C          -0.039615           
         C20       1.0000    0.48530   0.60630   0.29730   Biso      1.000     C          -0.003727           
         C21       1.0000    0.35380   0.71720   0.27740   Biso      1.000     C          0.215388  
         C22       1.0000    0.27480   0.53060   0.29400   Biso      1.000     C          0.650198  
         C23       1.0000    0.30200   0.54690   0.07050   Biso      1.000     C          0.627016  
         C24       1.0000    0.20360   0.54830   0.25350   Biso      1.000     C          0.018547  
         C25       1.0000    0.21500   0.55710   0.16370   Biso      1.000     C          0.002638  
         C26       1.0000    0.50540   0.95170   0.24650   Biso      1.000     C          0.018556  
         C27       1.0000    0.05440   0.58530   0.25910   Biso      1.000     C          0.229305  
         C28       1.0000    0.90220   0.13250   0.67050   Biso      1.000     C          -0.039622           
         C29       1.0000    0.88180   0.05240   0.67900   Biso      1.000     C          0.644724  
         C30       1.0000    0.40060   0.03060   0.79400   Biso      1.000     C          0.650195  
         C31       1.0000    0.58060   0.04690   0.57050   Biso      1.000     C          0.627017  
         C32       1.0000    0.49460   0.04830   0.75350   Biso      1.000     C          0.018557  
         C33       1.0000    0.56420   0.05710   0.66370   Biso      1.000     C          0.002641  
         C34       1.0000    0.60120   0.08530   0.75910   Biso      1.000     C          0.229301  
         C35       1.0000    0.56080   0.32100   0.55240   Biso      1.000     C          0.644726  
         C36       1.0000    0.42060   0.48410   0.72390   Biso      1.000     C          0.664421  
         C37       1.0000    0.57270   0.32950   0.63250   Biso      1.000     C          -0.039619           
         C38       1.0000    0.64620   0.28280   0.72260   Biso      1.000     C          0.215403  
         C39       1.0000    0.72520   0.46940   0.70600   Biso      1.000     C          0.6502    
         C40       1.0000    0.69800   0.45310   0.92950   Biso      1.000     C          0.627021  
         C41       1.0000    0.90470   0.22390   0.51590   Biso      1.000     C          0.664443  
         C42       1.0000    0.79640   0.45170   0.74650   Biso      1.000     C          0.018539  
         C43       1.0000    0.94560   0.41470   0.74090   Biso      1.000     C          0.229293  
         C44       1.0000    0.93420   0.17900   0.94760   Biso      1.000     C          0.644732  
         C45       1.0000    0.12860   0.01590   0.77610   Biso      1.000     C          0.664449  
         C46       1.0000    0.03470   0.17050   0.86750   Biso      1.000     C          -0.039625           
         C47       1.0000    0.11110   0.10630   0.79730   Biso      1.000     C          -0.003733           
         C48       1.0000    0.15160   0.21720   0.77740   Biso      1.000     C          0.215393  
         C49       1.0000    0.43120   0.29400   0.96940   Biso      1.000     C          0.650196  
         C50       1.0000    0.62750   0.07050   0.95310   Biso      1.000     C          0.627018  
         C51       1.0000    0.54290   0.25350   0.95170   Biso      1.000     C          0.018545  
         C52       1.0000    0.62130   0.16370   0.94290   Biso      1.000     C          0.00265   
         C53       1.0000    0.68650   0.25910   0.91470   Biso      1.000     C          0.229295  
         C54       1.0000    0.78500   0.44290   0.83630   Biso      1.000     C          0.002643  
         C55       1.0000    0.06580   0.82100   0.05240   Biso      1.000     C          0.64474   
         C56       1.0000    0.90840   0.20270   0.60630   Biso      1.000     C          -0.003741           
         C57       1.0000    0.96530   0.82950   0.13250   Biso      1.000     C          -0.039622           
         C58       1.0000    0.87140   0.98410   0.22390   Biso      1.000     C          0.66445   
         C59       1.0000    0.63120   0.72260   0.21720   Biso      1.000     C          0.215384  
         C60       1.0000    0.78260   0.70270   0.10630   Biso      1.000     C          -0.003723           
         C61       1.0000    0.79480   0.63250   0.17050   Biso      1.000     C          -0.039602           
         C62       1.0000    0.85550   0.72390   0.01590   Biso      1.000     C          0.664429  
         C63       1.0000    0.88680   0.55240   0.17900   Biso      1.000     C          0.64472   
         C64       1.0000    0.63970   0.75910   0.41470   Biso      1.000     C          0.229303  
         C65       1.0000    0.77210   0.66370   0.44290   Biso      1.000     C          0.002643  
         C66       1.0000    0.84890   0.57050   0.45310   Biso      1.000     C          0.627016  
         C67       1.0000    0.80540   0.79400   0.46940   Biso      1.000     C          0.650195  
         C68       1.0000    0.07100   0.77740   0.28280   Biso      1.000     C          0.215406  
         C69       1.0000    0.75190   0.75350   0.45170   Biso      1.000     C          0.018544  
         C70       1.0000    0.09780   0.86750   0.32950   Biso      1.000     C          -0.039621           
         C71       1.0000    0.88890   0.89370   0.20270   Biso      1.000     C          -0.00374  
         C72       1.0000    0.84840   0.78280   0.22260   Biso      1.000     C          0.215389  
         C73       1.0000    0.09160   0.79730   0.39370   Biso      1.000     C          -0.003736           
         C74       1.0000    0.37250   0.92950   0.04690   Biso      1.000     C          0.627019  
         C75       1.0000    0.45710   0.74650   0.04830   Biso      1.000     C          0.018548  
         C76       1.0000    0.56880   0.70600   0.03060   Biso      1.000     C          0.650194  
         C77       1.0000    0.31350   0.74090   0.08530   Biso      1.000     C          0.229294  
         C78       1.0000    0.11820   0.94760   0.32100   Biso      1.000     C          0.644737  
         C79       1.0000    0.09530   0.77610   0.48410   Biso      1.000     C          0.664446  
         C80       1.0000    0.37870   0.83630   0.05710   Biso      1.000     C          0.002649  
         H1        1.0000    0.30720   0.75320   0.25140   Biso      1.000     H          0.073311  
         H2        1.0000    0.55860   0.74860   0.25320   Biso      1.000     H          0.073312  
         H3        1.0000    0.58340   0.78230   0.40030   Biso      1.000     H          0.081488  
         H4        1.0000    0.06040   0.75140   0.24680   Biso      1.000     H          0.073312  
         H5        1.0000    0.26600   0.71770   0.09970   Biso      1.000     H          0.081489  
         H6        1.0000    0.98370   0.59970   0.28230   Biso      1.000     H          0.081494  
         H7        1.0000    0.36570   0.90030   0.21770   Biso      1.000     H          0.081487  
         H8        1.0000    0.81180   0.74680   0.24860   Biso      1.000     H          0.073311  
         H9        1.0000    0.41660   0.21770   0.59970   Biso      1.000     H          0.081486  
         H10       1.0000    0.44140   0.25140   0.74680   Biso      1.000     H          0.073311  
         H11       1.0000    0.69280   0.24680   0.74860   Biso      1.000     H          0.073313  
         H12       1.0000    0.01630   0.40030   0.71770   Biso      1.000     H          0.081491  
         H13       1.0000    0.18820   0.25320   0.75140   Biso      1.000     H          0.073312  
         H14       1.0000    0.63430   0.09970   0.78230   Biso      1.000     H          0.081487  
         H15       1.0000    0.73400   0.28230   0.90030   Biso      1.000     H          0.08149   
         H16       1.0000    0.93960   0.24860   0.75320   Biso      1.000     H          0.073311  
         N1        1.0000    0.43750   0.63650   0.23970   Biso      1.000     N          -0.435128           
         N2        1.0000    0.11840   0.58110   0.16810   Biso      1.000     N          -0.485823           
         N3        1.0000    0.10100   0.56710   0.31330   Biso      1.000     N          -0.457925           
         N4        1.0000    0.69710   0.64530   0.24170   Biso      1.000     N          -0.463632           
         N5        1.0000    0.93880   0.75830   0.14530   Biso      1.000     N          -0.463613           
         N6        1.0000    0.28650   0.83190   0.08110   Biso      1.000     N          -0.485829           
         N7        1.0000    0.41430   0.68670   0.06710   Biso      1.000     N          -0.457922           
         N8        1.0000    0.07400   0.73970   0.36350   Biso      1.000     N          -0.435127           
         N9        1.0000    0.08410   0.85470   0.25830   Biso      1.000     N          -0.463641           
         N10       1.0000    0.69950   0.66810   0.41890   Biso      1.000     N          -0.485821           
         N11       1.0000    0.66810   0.81330   0.43290   Biso      1.000     N          -0.457927           
         N12       1.0000    0.67720   0.76030   0.13650   Biso      1.000     N          -0.435142           
         N13       1.0000    0.34240   0.74170   0.35470   Biso      1.000     N          -0.463626           
         N14       1.0000    0.81370   0.86350   0.26030   Biso      1.000     N          -0.435137           
         N15       1.0000    0.30050   0.33190   0.58110   Biso      1.000     N          -0.485824           
         N16       1.0000    0.32280   0.23970   0.86350   Biso      1.000     N          -0.435139           
         N17       1.0000    0.48140   0.93290   0.18670   Biso      1.000     N          -0.457931           
         N18       1.0000    0.63240   0.08110   0.66810   Biso      1.000     N          -0.485831           
         N19       1.0000    0.51860   0.06710   0.81330   Biso      1.000     N          -0.457929           
         N20       1.0000    0.56250   0.36350   0.76030   Biso      1.000     N          -0.435123           
         N21       1.0000    0.65760   0.25830   0.64530   Biso      1.000     N          -0.463641           
         N22       1.0000    0.88160   0.41890   0.83190   Biso      1.000     N          -0.485794           
         N23       1.0000    0.30290   0.35470   0.75830   Biso      1.000     N          -0.463633           
         N24       1.0000    0.89900   0.43290   0.68670   Biso      1.000     N          -0.457931           
         N25       1.0000    0.06120   0.24170   0.85470   Biso      1.000     N          -0.463619           
         N26       1.0000    0.71350   0.16810   0.91890   Biso      1.000     N          -0.485827           
         N27       1.0000    0.58570   0.31330   0.93290   Biso      1.000     N          -0.457922           
         N28       1.0000    0.92600   0.26030   0.63650   Biso      1.000     N          -0.435127           
         N29       1.0000    0.91590   0.14530   0.74170   Biso      1.000     N          -0.463645           
         N30       1.0000    0.33190   0.18670   0.56710   Biso      1.000     N          -0.457926           
         N31       1.0000    0.18630   0.13650   0.73970   Biso      1.000     N          -0.435133           
         N32       1.0000    0.36760   0.91890   0.33190   Biso      1.000     N          -0.485828           
         O1        1.0000    0.62000   0.99450   0.25610   Biso      1.000     O          -0.668421           
         O2        1.0000    0.22710   0.11920   0.54240   Biso      1.000     O          -0.632076           
         O3        1.0000    0.52270   0.62890   0.45430   Biso      1.000     O          -0.661649           
         O4        1.0000    0.63150   0.48340   0.32160   Biso      1.000     O          -0.684018           
         O5        1.0000    0.60429   0.47201   0.20761   Biso      1.000     O          -0.656053           
         O6        1.0000    0.34969   0.93245   0.49777   Biso      1.000     O          -0.680283           
         O7        1.0000    0.46853   0.98499   0.44415   Biso      1.000     O          -0.741765           
         O8        1.0000    0.84840   0.04570   0.62890   Biso      1.000     O          -0.66164  
         O9        1.0000    0.89860   0.99280   0.74120   Biso      1.000     O          -0.653124           
         O10       1.0000    0.65370   0.95760   0.11920   Biso      1.000     O          -0.632064           
         O11       1.0000    0.02300   0.45430   0.87110   Biso      1.000     O          -0.661639           
         O12       1.0000    0.04690   0.32160   0.01660   Biso      1.000     O          -0.684    
         O13       1.0000    0.18810   0.20761   0.02799   Biso      1.000     O          -0.656047           
         O14       1.0000    0.15254   0.49777   0.56755   Biso      1.000     O          -0.680275           
         O15       1.0000    0.08732   0.44415   0.51501   Biso      1.000     O          -0.741762           
         O16       1.0000    0.12390   0.25610   0.50550   Biso      1.000     O          -0.668418           
         O17       1.0000    0.13260   0.50720   0.75880   Biso      1.000     O          -0.653106           
         O18       1.0000    0.88510   0.17840   0.48340   Biso      1.000     O          -0.684034           
         O19       1.0000    0.53147   0.01501   0.55585   Biso      1.000     O          -0.74176  
         O20       1.0000    0.71786   0.00223   0.93245   Biso      1.000     O          -0.6803   
         O21       1.0000    0.36020   0.74120   0.50720   Biso      1.000     O          -0.653098           
         O22       1.0000    0.38870   0.38080   0.95760   Biso      1.000     O          -0.632077           
         O23       1.0000    0.89140   0.24120   0.00720   Biso      1.000     O          -0.653108           
         O24       1.0000    0.89410   0.12890   0.95430   Biso      1.000     O          -0.661631           
         O25       1.0000    0.06350   0.98340   0.82160   Biso      1.000     O          -0.684027           
         O26       1.0000    0.21609   0.97201   0.70761   Biso      1.000     O          -0.656071           
         O27       1.0000    0.72009   0.43245   0.99777   Biso      1.000     O          -0.680282           
         O28       1.0000    0.60233   0.48499   0.94415   Biso      1.000     O          -0.74177  
         O29       1.0000    0.38550   0.24390   0.99450   Biso      1.000     O          -0.66842  
         O30       1.0000    0.62940   0.49450   0.75610   Biso      1.000     O          -0.668429           
         O31       1.0000    0.76950   0.45760   0.61920   Biso      1.000     O          -0.632075           
         O32       1.0000    0.63980   0.25880   0.49280   Biso      1.000     O          -0.653119           
         O33       1.0000    0.47730   0.37110   0.54570   Biso      1.000     O          -0.661635           
         O34       1.0000    0.36850   0.51660   0.67840   Biso      1.000     O          -0.684012           
         O35       1.0000    0.39571   0.52799   0.79239   Biso      1.000     O          -0.656053           
         O36       1.0000    0.65031   0.06755   0.50223   Biso      1.000     O          -0.680301           
         O37       1.0000    0.54648   0.05585   0.98499   Biso      1.000     O          -0.741761           
         O38       1.0000    0.92370   0.29239   0.47201   Biso      1.000     O          -0.656057           
         O39       1.0000    0.23050   0.54240   0.38080   Biso      1.000     O          -0.632074           
         O40       1.0000    0.34630   0.04240   0.88080   Biso      1.000     O          -0.632065           
         O41       1.0000    0.39767   0.51501   0.05585   Biso      1.000     O          -0.74176  
         O42       1.0000    0.38000   0.00550   0.74390   Biso      1.000     O          -0.66842  
         O43       1.0000    0.86740   0.49280   0.24120   Biso      1.000     O          -0.65311  
         O44       1.0000    0.97700   0.54570   0.12890   Biso      1.000     O          -0.661654           
         O45       1.0000    0.37060   0.50550   0.24390   Biso      1.000     O          -0.668425           
         O46       1.0000    0.81190   0.79239   0.97201   Biso      1.000     O          -0.656055           
         O47       1.0000    0.84746   0.50223   0.43245   Biso      1.000     O          -0.680276           
         O48       1.0000    0.91268   0.55585   0.48499   Biso      1.000     O          -0.741764           
         O49       1.0000    0.87610   0.74390   0.49450   Biso      1.000     O          -0.668419           
         O50       1.0000    0.77290   0.88080   0.45760   Biso      1.000     O          -0.63207  
         O51       1.0000    0.10140   0.00720   0.25880   Biso      1.000     O          -0.653116           
         O52       1.0000    0.15160   0.95430   0.37110   Biso      1.000     O          -0.661647           
         O53       1.0000    0.95310   0.67840   0.98340   Biso      1.000     O          -0.684019           
         O54       1.0000    0.07630   0.70761   0.52799   Biso      1.000     O          -0.656053           
         O55       1.0000    0.11490   0.82160   0.51660   Biso      1.000     O          -0.684021           
         O56       1.0000    0.27991   0.56755   0.00223   Biso      1.000     O          -0.680279           
         O57       1.0000    0.93650   0.01660   0.17840   Biso      1.000     O          -0.684032           
         O58       1.0000    0.10590   0.87110   0.04570   Biso      1.000     O          -0.661639           
         O59       1.0000    0.78391   0.02799   0.29239   Biso      1.000     O          -0.656075           
         O60       1.0000    0.61130   0.61920   0.04240   Biso      1.000     O          -0.632065           
         O61       1.0000    0.61450   0.75610   0.00550   Biso      1.000     O          -0.668418           
         O62       1.0000    0.45352   0.94415   0.01501   Biso      1.000     O          -0.741761           
         O63       1.0000    0.28214   0.99777   0.06755   Biso      1.000     O          -0.680305           
         O64       1.0000    0.10860   0.75880   0.99280   Biso      1.000     O          -0.653127           
         Sm1       1.0000    0.23765   0.87980   0.46746   Biso      1.000     Sm          2.028037  
         Sm2       1.0000    0.62595   0.88674   0.02394   Biso      1.000     Sm          2.028137  
         Sm3       1.0000    0.11745   0.96746   0.12021   Biso      1.000     Sm          2.028061  
         Sm4       1.0000    0.03663   0.61326   0.47606   Biso      1.000     Sm          2.028136  
         Sm5       1.0000    0.08492   0.62020   0.03253   Biso      1.000     Sm          2.028047  
         Sm6       1.0000    0.64989   0.97606   0.38674   Biso      1.000     Sm          2.028141  
         Sm7       1.0000    0.51269   0.52394   0.11326   Biso      1.000     Sm          2.02813   
         Sm8       1.0000    0.91509   0.37979   0.96747   Biso      1.000     Sm          2.02799   
         Sm9       1.0000    0.37405   0.11326   0.97606   Biso      1.000     Sm          2.028138  
         Sm10      1.0000    0.88255   0.03254   0.87979   Biso      1.000     Sm          2.028064  
         Sm11      1.0000    0.96337   0.38674   0.52394   Biso      1.000     Sm          2.028135  
         Sm12      1.0000    0.35011   0.02394   0.61326   Biso      1.000     Sm          2.028141  
         Sm13      1.0000    0.76234   0.12021   0.53254   Biso      1.000     Sm          2.028069  
         Sm14      1.0000    0.48731   0.47606   0.88674   Biso      1.000     Sm          2.028132  
         Sm15      1.0000    0.29489   0.46746   0.62020   Biso      1.000     Sm          2.028028  
         Sm16      1.0000    0.70511   0.53254   0.37980   Biso      1.000     Sm          2.028024 