
##########################################################################
#               Crystallographic Information Format file
#               Produced by PyCifRW module
#
#  This is a CIF file.  CIF has been adopted by the International
#  Union of Crystallography as the standard for data archiving and
#  transmission.
#
#  For information on this file format, follow the CIF links at
#  http://www.iucr.org
##########################################################################

data_image0

_cell_length_a                          16.157
_cell_length_b                          16.4708
_cell_length_c                          16.4708
_cell_angle_alpha                       76.0801
_cell_angle_beta                        60.6283
_cell_angle_gamma                       60.6283
_symmetry_space_group_name_H-M          'P 1'
_symmetry_int_tables_number             1
loop_
  _symmetry_equiv_pos_as_xyz
         'x, y, z' 
loop_
  _atom_site_label
  _atom_site_occupancy
  _atom_site_fract_x
  _atom_site_fract_y
  _atom_site_fract_z
  _atom_site_thermal_displace_type
  _atom_site_B_iso_or_equiv
  _atom_site_type_symbol
  _atom_site_charge
         C1        1.0000    0.40880   0.20270   0.60550   Biso      1.000     C          -0.00827  
         C2        1.0000    0.55280   0.58590   0.25950   Biso      1.000     C          0.230313  
         C3        1.0000    0.38730   0.55100   0.17860   Biso      1.000     C          0.655005  
         C4        1.0000    0.35560   0.72370   0.01470   Biso      1.000     C          0.663387  
         C5        1.0000    0.29520   0.63150   0.17050   Biso      1.000     C          -0.038672           
         C6        1.0000    0.28300   0.70270   0.10550   Biso      1.000     C          -0.008674           
         C7        1.0000    0.13000   0.72330   0.21630   Biso      1.000     C          0.214237  
         C8        1.0000    0.06890   0.70550   0.03070   Biso      1.000     C          0.652398  
         C9        1.0000    0.71460   0.55740   0.16260   Biso      1.000     C          0.002862  
         C10       1.0000    0.87170   0.93040   0.04660   Biso      1.000     C          0.622225  
         C11       1.0000    0.87720   0.83740   0.05740   Biso      1.000     C          0.006165  
         C12       1.0000    0.81230   0.74050   0.08590   Biso      1.000     C          0.231943  
         C13       1.0000    0.56590   0.82140   0.05100   Biso      1.000     C          0.652156  
         C14       1.0000    0.37030   0.98530   0.22370   Biso      1.000     C          0.667187  
         C15       1.0000    0.46570   0.82950   0.13150   Biso      1.000     C          -0.036746           
         C16       1.0000    0.38850   0.89450   0.20270   Biso      1.000     C          -0.009716           
         C17       1.0000    0.34630   0.78370   0.22330   Biso      1.000     C          0.215811  
         C18       1.0000    0.95640   0.74600   0.04860   Biso      1.000     C          0.011806  
         C19       1.0000    0.30510   0.79450   0.46930   Biso      1.000     C          0.649241  
         C20       1.0000    0.70240   0.54860   0.25400   Biso      1.000     C          0.008339  
         C21       1.0000    0.77440   0.53070   0.29450   Biso      1.000     C          0.652222  
         C22       1.0000    0.86130   0.24050   0.58590   Biso      1.000     C          0.23515   
         C23       1.0000    0.06170   0.32140   0.55100   Biso      1.000     C          0.65601   
         C24       1.0000    0.92070   0.48530   0.72370   Biso      1.000     C          0.665701  
         C25       1.0000    0.07330   0.32950   0.63150   Biso      1.000     C          -0.038852           
         C26       1.0000    0.01430   0.39450   0.70270   Biso      1.000     C          -0.007912           
         C27       1.0000    0.14670   0.28370   0.72330   Biso      1.000     C          0.215019  
         C28       1.0000    0.09960   0.96930   0.20550   Biso      1.000     C          0.649331  
         C29       1.0000    0.80210   0.54660   0.06960   Biso      1.000     C          0.625376  
         C30       1.0000    0.91830   0.95340   0.43040   Biso      1.000     C          0.62033   
         C31       1.0000    0.93460   0.94260   0.33740   Biso      1.000     C          0.003935  
         C32       1.0000    0.89820   0.91410   0.24050   Biso      1.000     C          0.231515  
         C33       1.0000    0.61690   0.94900   0.32140   Biso      1.000     C          0.655485  
         C34       1.0000    0.59400   0.77630   0.48530   Biso      1.000     C          0.660675  
         C35       1.0000    0.59720   0.86850   0.32950   Biso      1.000     C          -0.036651           
         C36       1.0000    0.59120   0.79730   0.39450   Biso      1.000     C          -0.00827  
         C37       1.0000    0.56960   0.77670   0.28370   Biso      1.000     C          0.213763  
         C38       1.0000    0.00500   0.95140   0.24600   Biso      1.000     C          0.01073   
         C39       1.0000    0.34870   0.56960   0.45340   Biso      1.000     C          0.62171   
         C40       1.0000    0.25100   0.75400   0.45140   Biso      1.000     C          0.010836  
         C41       1.0000    0.27200   0.66260   0.44260   Biso      1.000     C          0.005061  
         C42       1.0000    0.64440   0.27630   0.98530   Biso      1.000     C          0.663387  
         C43       1.0000    0.61270   0.44900   0.82140   Biso      1.000     C          0.655005  
         C44       1.0000    0.44720   0.41410   0.74050   Biso      1.000     C          0.230313  
         C45       1.0000    0.28540   0.44260   0.83740   Biso      1.000     C          0.002862  
         C46       1.0000    0.29760   0.45140   0.74600   Biso      1.000     C          0.008339  
         C47       1.0000    0.19790   0.45340   0.93040   Biso      1.000     C          0.625376  
         C48       1.0000    0.22560   0.46930   0.70550   Biso      1.000     C          0.652222  
         C49       1.0000    0.70480   0.36850   0.82950   Biso      1.000     C          -0.038672           
         C50       1.0000    0.43040   0.22330   0.71630   Biso      1.000     C          0.213763  
         C51       1.0000    0.40600   0.22370   0.51470   Biso      1.000     C          0.660675  
         C52       1.0000    0.38310   0.05100   0.67860   Biso      1.000     C          0.655485  
         C53       1.0000    0.10180   0.08590   0.75950   Biso      1.000     C          0.231515  
         C54       1.0000    0.06540   0.05740   0.66260   Biso      1.000     C          0.003935  
         C55       1.0000    0.99500   0.04860   0.75400   Biso      1.000     C          0.01073   
         C56       1.0000    0.08170   0.04660   0.56960   Biso      1.000     C          0.62033   
         C57       1.0000    0.90040   0.03070   0.79450   Biso      1.000     C          0.649331  
         C58       1.0000    0.40280   0.13150   0.67050   Biso      1.000     C          -0.036651           
         C59       1.0000    0.71700   0.29730   0.89450   Biso      1.000     C          -0.008673           
         C60       1.0000    0.87000   0.27670   0.78370   Biso      1.000     C          0.214237  
         C61       1.0000    0.93110   0.29450   0.96930   Biso      1.000     C          0.652398  
         C62       1.0000    0.13870   0.75950   0.41410   Biso      1.000     C          0.23515   
         C63       1.0000    0.93830   0.67860   0.44900   Biso      1.000     C          0.65601   
         C64       1.0000    0.07930   0.51470   0.27630   Biso      1.000     C          0.665701  
         C65       1.0000    0.92670   0.67050   0.36850   Biso      1.000     C          -0.038852           
         C66       1.0000    0.98570   0.60550   0.29730   Biso      1.000     C          -0.007912           
         C67       1.0000    0.85330   0.71630   0.27670   Biso      1.000     C          0.215019  
         C68       1.0000    0.65130   0.43040   0.54660   Biso      1.000     C          0.62171   
         C69       1.0000    0.69490   0.20550   0.53070   Biso      1.000     C          0.649241  
         C70       1.0000    0.65370   0.21630   0.77670   Biso      1.000     C          0.215811  
         C71       1.0000    0.61150   0.10550   0.79730   Biso      1.000     C          -0.009716           
         C72       1.0000    0.53430   0.17050   0.86850   Biso      1.000     C          -0.036746           
         C73       1.0000    0.62970   0.01470   0.77630   Biso      1.000     C          0.667187  
         C74       1.0000    0.43410   0.17860   0.94900   Biso      1.000     C          0.652156  
         C75       1.0000    0.18770   0.25950   0.91410   Biso      1.000     C          0.231943  
         C76       1.0000    0.12280   0.16260   0.94260   Biso      1.000     C          0.006165  
         C77       1.0000    0.04360   0.25400   0.95140   Biso      1.000     C          0.011806  
         C78       1.0000    0.12830   0.06960   0.95340   Biso      1.000     C          0.622225  
         C79       1.0000    0.72800   0.33740   0.55740   Biso      1.000     C          0.005061  
         C80       1.0000    0.74900   0.24600   0.54860   Biso      1.000     C          0.010836  
         Gd1       1.0000    0.20516   0.53227   0.37914   Biso      1.000     Gd          1.999038  
         Gd2       1.0000    0.79484   0.46773   0.62086   Biso      1.000     Gd          1.999038  
         Gd3       1.0000    0.01219   0.52371   0.11351   Biso      1.000     Gd          1.980816  
         Gd4       1.0000    0.61657   0.96773   0.12086   Biso      1.000     Gd          2.000504  
         Gd5       1.0000    0.14941   0.97629   0.38649   Biso      1.000     Gd          1.979512  
         Gd6       1.0000    0.58430   0.62086   0.03227   Biso      1.000     Gd          1.999199  
         Gd7       1.0000    0.12570   0.88649   0.02371   Biso      1.000     Gd          1.980524  
         Gd8       1.0000    0.73743   0.87914   0.46773   Biso      1.000     Gd          1.999727  
         Gd9       1.0000    0.53590   0.61351   0.47629   Biso      1.000     Gd          1.98036   
         Gd10      1.0000    0.98781   0.47629   0.88649   Biso      1.000     Gd          1.980816  
         Gd11      1.0000    0.38343   0.03227   0.87914   Biso      1.000     Gd          2.000504  
         Gd12      1.0000    0.85059   0.02371   0.61351   Biso      1.000     Gd          1.979512  
         Gd13      1.0000    0.41570   0.37914   0.96773   Biso      1.000     Gd          1.999199  
         Gd14      1.0000    0.87430   0.11351   0.97629   Biso      1.000     Gd          1.980524  
         Gd15      1.0000    0.26257   0.12086   0.53227   Biso      1.000     Gd          1.999727  
         Gd16      1.0000    0.46410   0.38649   0.52371   Biso      1.000     Gd          1.98036   
         H1        1.0000    0.13520   0.10030   0.78270   Biso      1.000     H          0.080903  
         H2        1.0000    0.44150   0.24930   0.75210   Biso      1.000     H          0.073135  
         H3        1.0000    0.08210   0.78270   0.39970   Biso      1.000     H          0.079374  
         H4        1.0000    0.80640   0.75210   0.25070   Biso      1.000     H          0.073541  
         H5        1.0000    0.51820   0.39970   0.71730   Biso      1.000     H          0.08056   
         H6        1.0000    0.94290   0.25070   0.74790   Biso      1.000     H          0.074673  
         H7        1.0000    0.23550   0.28270   0.89970   Biso      1.000     H          0.080824  
         H8        1.0000    0.91790   0.21730   0.60030   Biso      1.000     H          0.079374  
         H9        1.0000    0.19360   0.24790   0.74930   Biso      1.000     H          0.073541  
         H10       1.0000    0.69080   0.25210   0.75070   Biso      1.000     H          0.072896  
         H11       1.0000    0.55850   0.75070   0.24790   Biso      1.000     H          0.073135  
         H12       1.0000    0.48180   0.60030   0.28270   Biso      1.000     H          0.08056   
         H13       1.0000    0.05710   0.74930   0.25210   Biso      1.000     H          0.074673  
         H14       1.0000    0.76450   0.71730   0.10030   Biso      1.000     H          0.080824  
         H15       1.0000    0.30920   0.74790   0.24930   Biso      1.000     H          0.072896  
         H16       1.0000    0.86480   0.89970   0.21730   Biso      1.000     H          0.080903  
         N1        1.0000    0.83320   0.18600   0.56780   Biso      1.000     N          -0.449127           
         N2        1.0000    0.21420   0.16830   0.91830   Biso      1.000     N          -0.486411           
         N3        1.0000    0.80080   0.33170   0.58170   Biso      1.000     N          -0.486989           
         N4        1.0000    0.56180   0.24160   0.85500   Biso      1.000     N          -0.467487           
         N5        1.0000    0.68770   0.13590   0.73910   Biso      1.000     N          -0.429254           
         N6        1.0000    0.08700   0.31400   0.93220   Biso      1.000     N          -0.450249           
         N7        1.0000    0.80340   0.35500   0.75840   Biso      1.000     N          -0.467121           
         N8        1.0000    0.13250   0.08170   0.66830   Biso      1.000     N          -0.484423           
         N9        1.0000    0.40100   0.43220   0.68600   Biso      1.000     N          -0.444942           
         N10       1.0000    0.38250   0.41830   0.83170   Biso      1.000     N          -0.484168           
         N11       1.0000    0.41680   0.14500   0.74160   Biso      1.000     N          -0.466022           
         N12       1.0000    0.42680   0.26090   0.63590   Biso      1.000     N          -0.428684           
         N13       1.0000    0.01920   0.06780   0.81400   Biso      1.000     N          -0.44742  
         N14       1.0000    0.06270   0.36410   0.76090   Biso      1.000     N          -0.429076           
         N15       1.0000    0.82360   0.23910   0.86410   Biso      1.000     N          -0.42887  
         N16       1.0000    0.15840   0.25840   0.64500   Biso      1.000     N          -0.467309           
         N17       1.0000    0.86750   0.91830   0.33170   Biso      1.000     N          -0.484423           
         N18       1.0000    0.98080   0.93220   0.18600   Biso      1.000     N          -0.44742  
         N19       1.0000    0.93730   0.63590   0.23910   Biso      1.000     N          -0.429076           
         N20       1.0000    0.16680   0.81400   0.43220   Biso      1.000     N          -0.449127           
         N21       1.0000    0.19920   0.66830   0.41830   Biso      1.000     N          -0.486989           
         N22       1.0000    0.43820   0.75840   0.14500   Biso      1.000     N          -0.467487           
         N23       1.0000    0.31230   0.86410   0.26090   Biso      1.000     N          -0.429254           
         N24       1.0000    0.91300   0.68600   0.06780   Biso      1.000     N          -0.450249           
         N25       1.0000    0.84160   0.74160   0.35500   Biso      1.000     N          -0.467309           
         N26       1.0000    0.19660   0.64500   0.24160   Biso      1.000     N          -0.467121           
         N27       1.0000    0.17640   0.76090   0.13590   Biso      1.000     N          -0.42887  
         N28       1.0000    0.59900   0.56780   0.31400   Biso      1.000     N          -0.444942           
         N29       1.0000    0.61750   0.58170   0.16830   Biso      1.000     N          -0.484168           
         N30       1.0000    0.58320   0.85500   0.25840   Biso      1.000     N          -0.466022           
         N31       1.0000    0.57320   0.73910   0.36410   Biso      1.000     N          -0.428684           
         N32       1.0000    0.78580   0.83170   0.08170   Biso      1.000     N          -0.486411           
         O1        1.0000    0.21940   0.00120   0.93120   Biso      1.000     O          -0.664539           
         O2        1.0000    0.39190   0.24060   0.00820   Biso      1.000     O          -0.642848           
         O3        1.0000    0.39500   0.12790   0.95450   Biso      1.000     O          -0.660043           
         O4        1.0000    0.71780   0.96970   0.70770   Biso      1.000     O          -0.648328           
         O5        1.0000    0.56420   0.98210   0.82150   Biso      1.000     O          -0.682449           
         O6        1.0000    0.72770   0.11790   0.54270   Biso      1.000     O          -0.627874           
         O7        1.0000    0.65180   0.49880   0.56880   Biso      1.000     O          -0.664058           
         O8        1.0000    0.58720   0.44460   0.51440   Biso      1.000     O          -0.726253           
         O9        1.0000    0.14070   0.25940   0.49180   Biso      1.000     O          -0.644846           
         O10       1.0000    0.97740   0.37210   0.54550   Biso      1.000     O          -0.661933           
         O11       1.0000    0.89520   0.53030   0.79230   Biso      1.000     O          -0.648053           
         O12       1.0000    0.04620   0.05540   0.98560   Biso      1.000     O          -0.727436           
         O13       1.0000    0.62430   0.25600   0.50500   Biso      1.000     O          -0.657375           
         O14       1.0000    0.88530   0.24400   0.99500   Biso      1.000     O          -0.659609           
         O15       1.0000    0.12930   0.49500   0.75600   Biso      1.000     O          -0.659089           
         O16       1.0000    0.54630   0.32150   0.01790   Biso      1.000     O          -0.680479           
         O17       1.0000    0.68750   0.20770   0.03030   Biso      1.000     O          -0.646867           
         O18       1.0000    0.52290   0.45450   0.87210   Biso      1.000     O          -0.660823           
         O19       1.0000    0.63250   0.50820   0.75940   Biso      1.000     O          -0.644637           
         O20       1.0000    0.22060   0.43120   0.99880   Biso      1.000     O          -0.665656           
         O21       1.0000    0.10160   0.48560   0.94460   Biso      1.000     O          -0.72757  
         O22       1.0000    0.86780   0.51790   0.67850   Biso      1.000     O          -0.680964           
         O23       1.0000    0.27040   0.45730   0.61790   Biso      1.000     O          -0.629134           
         O24       1.0000    0.38570   0.17850   0.48210   Biso      1.000     O          -0.678639           
         O25       1.0000    0.42550   0.29230   0.46970   Biso      1.000     O          -0.647205           
         O26       1.0000    0.34950   0.04550   0.62790   Biso      1.000     O          -0.663106           
         O27       1.0000    0.40010   0.99180   0.74060   Biso      1.000     O          -0.644016           
         O28       1.0000    0.15060   0.06880   0.50120   Biso      1.000     O          -0.664102           
         O29       1.0000    0.03180   0.01440   0.55540   Biso      1.000     O          -0.725386           
         O30       1.0000    0.88830   0.38210   0.95730   Biso      1.000     O          -0.629375           
         O31       1.0000    0.15440   0.95730   0.11790   Biso      1.000     O          -0.629211           
         O32       1.0000    0.13220   0.48210   0.32150   Biso      1.000     O          -0.680964           
         O33       1.0000    0.96820   0.98560   0.44460   Biso      1.000     O          -0.725386           
         O34       1.0000    0.88030   0.00500   0.74400   Biso      1.000     O          -0.656568           
         O35       1.0000    0.10480   0.46970   0.20770   Biso      1.000     O          -0.648053           
         O36       1.0000    0.02260   0.62790   0.45450   Biso      1.000     O          -0.661933           
         O37       1.0000    0.85930   0.74060   0.50820   Biso      1.000     O          -0.644846           
         O38       1.0000    0.34820   0.50120   0.43120   Biso      1.000     O          -0.664058           
         O39       1.0000    0.41280   0.55540   0.48560   Biso      1.000     O          -0.726253           
         O40       1.0000    0.37570   0.74400   0.49500   Biso      1.000     O          -0.657375           
         O41       1.0000    0.27230   0.88210   0.45730   Biso      1.000     O          -0.627873           
         O42       1.0000    0.43580   0.01790   0.17850   Biso      1.000     O          -0.682449           
         O43       1.0000    0.28220   0.03030   0.29230   Biso      1.000     O          -0.648328           
         O44       1.0000    0.60500   0.87210   0.04550   Biso      1.000     O          -0.660043           
         O45       1.0000    0.60810   0.75940   0.99180   Biso      1.000     O          -0.642848           
         O46       1.0000    0.78060   0.99880   0.06880   Biso      1.000     O          -0.664539           
         O47       1.0000    0.95380   0.94460   0.01440   Biso      1.000     O          -0.727436           
         O48       1.0000    0.11470   0.75600   0.00500   Biso      1.000     O          -0.659609           
         O49       1.0000    0.11170   0.61790   0.04270   Biso      1.000     O          -0.629375           
         O50       1.0000    0.45370   0.67850   0.98210   Biso      1.000     O          -0.680479           
         O51       1.0000    0.31250   0.79230   0.96970   Biso      1.000     O          -0.646867           
         O52       1.0000    0.47710   0.54550   0.12790   Biso      1.000     O          -0.660823           
         O53       1.0000    0.36750   0.49180   0.24060   Biso      1.000     O          -0.644637           
         O54       1.0000    0.77940   0.56880   0.00120   Biso      1.000     O          -0.665656           
         O55       1.0000    0.89840   0.51440   0.05540   Biso      1.000     O          -0.72757  
         O56       1.0000    0.87070   0.50500   0.24400   Biso      1.000     O          -0.659089           
         O57       1.0000    0.72960   0.54270   0.38210   Biso      1.000     O          -0.629134           
         O58       1.0000    0.61430   0.82150   0.51790   Biso      1.000     O          -0.678639           
         O59       1.0000    0.57450   0.70770   0.53030   Biso      1.000     O          -0.647205           
         O60       1.0000    0.65050   0.95450   0.37210   Biso      1.000     O          -0.663106           
         O61       1.0000    0.59990   0.00820   0.25940   Biso      1.000     O          -0.644016           
         O62       1.0000    0.84940   0.93120   0.49880   Biso      1.000     O          -0.664102           
         O63       1.0000    0.11970   0.99500   0.25600   Biso      1.000     O          -0.656568           
         O64       1.0000    0.84560   0.04270   0.88210   Biso      1.000     O          -0.629211 