
##########################################################################
#               Crystallographic Information Format file
#               Produced by PyCifRW module
#
#  This is a CIF file.  CIF has been adopted by the International
#  Union of Crystallography as the standard for data archiving and
#  transmission.
#
#  For information on this file format, follow the CIF links at
#  http://www.iucr.org
##########################################################################

data_image0

_cell_length_a                          16.047
_cell_length_b                          16.3995
_cell_length_c                          16.3995
_cell_angle_alpha                       76.1507
_cell_angle_beta                        60.7085
_cell_angle_gamma                       60.7084
_symmetry_space_group_name_H-M          'P 1'
_symmetry_int_tables_number             1
loop_
  _symmetry_equiv_pos_as_xyz
         'x, y, z' 
loop_
  _atom_site_label
  _atom_site_occupancy
  _atom_site_fract_x
  _atom_site_fract_y
  _atom_site_fract_z
  _atom_site_thermal_displace_type
  _atom_site_B_iso_or_equiv
  _atom_site_type_symbol
  _atom_site_charge
         C1        1.0000    0.71900   0.89360   0.29660   Biso      1.000     C          -0.005287           
         C2        1.0000    0.69420   0.53000   0.20640   Biso      1.000     C          0.65852   
         C3        1.0000    0.65290   0.54530   0.43050   Biso      1.000     C          0.629917  
         C4        1.0000    0.75020   0.54750   0.24590   Biso      1.000     C          0.011961  
         C5        1.0000    0.72960   0.55660   0.33620   Biso      1.000     C          0.003637  
         C6        1.0000    0.86230   0.58560   0.24100   Biso      1.000     C          0.232542  
         C7        1.0000    0.06300   0.55110   0.32110   Biso      1.000     C          0.650472  
         C8        1.0000    0.92140   0.72470   0.48490   Biso      1.000     C          0.665111  
         C9        1.0000    0.07510   0.63230   0.32830   Biso      1.000     C          -0.034033           
         C10       1.0000    0.01560   0.70340   0.39360   Biso      1.000     C          -0.006134           
         C11       1.0000    0.14740   0.72400   0.28320   Biso      1.000     C          0.212448  
         C12       1.0000    0.77580   0.29360   0.53000   Biso      1.000     C          0.661942  
         C13       1.0000    0.65460   0.77600   0.21680   Biso      1.000     C          0.211176  
         C14       1.0000    0.80180   0.06950   0.54530   Biso      1.000     C          0.62946   
         C15       1.0000    0.71380   0.16380   0.55660   Biso      1.000     C          0.003875  
         C16       1.0000    0.55210   0.25900   0.58560   Biso      1.000     C          0.232967  
         C17       1.0000    0.38590   0.17890   0.55110   Biso      1.000     C          0.6534    
         C18       1.0000    0.35390   0.01510   0.72470   Biso      1.000     C          0.664861  
         C19       1.0000    0.29260   0.17170   0.63230   Biso      1.000     C          -0.036513           
         C20       1.0000    0.28100   0.10640   0.70340   Biso      1.000     C          -0.005287           
         C21       1.0000    0.12860   0.21680   0.72400   Biso      1.000     C          0.212073  
         C22       1.0000    0.09940   0.20640   0.97000   Biso      1.000     C          0.659806  
         C23       1.0000    0.91660   0.43050   0.95470   Biso      1.000     C          0.629314  
         C24       1.0000    0.00390   0.24590   0.95250   Biso      1.000     C          0.012886  
         C25       1.0000    0.93420   0.33620   0.94340   Biso      1.000     C          -0.000694           
         C26       1.0000    0.70230   0.25410   0.54750   Biso      1.000     C          0.011298  
         C27       1.0000    0.89670   0.24100   0.91440   Biso      1.000     C          0.231309  
         C28       1.0000    0.53570   0.86770   0.17170   Biso      1.000     C          -0.035375           
         C29       1.0000    0.43520   0.94890   0.17890   Biso      1.000     C          0.648865  
         C30       1.0000    0.22420   0.70640   0.47000   Biso      1.000     C          0.661942  
         C31       1.0000    0.19820   0.93050   0.45470   Biso      1.000     C          0.62946   
         C32       1.0000    0.29770   0.74590   0.45250   Biso      1.000     C          0.011295  
         C33       1.0000    0.28620   0.83620   0.44340   Biso      1.000     C          0.003878  
         C34       1.0000    0.44790   0.74100   0.41440   Biso      1.000     C          0.232967  
         C35       1.0000    0.61410   0.82110   0.44890   Biso      1.000     C          0.6534    
         C36       1.0000    0.64610   0.98490   0.27530   Biso      1.000     C          0.664861  
         C37       1.0000    0.70740   0.82830   0.36770   Biso      1.000     C          -0.036513           
         C38       1.0000    0.87140   0.78320   0.27600   Biso      1.000     C          0.212073  
         C39       1.0000    0.90060   0.79360   0.03000   Biso      1.000     C          0.659806  
         C40       1.0000    0.08340   0.56950   0.04530   Biso      1.000     C          0.629314  
         C41       1.0000    0.63100   0.77530   0.01510   Biso      1.000     C          0.664426  
         C42       1.0000    0.99610   0.75410   0.04750   Biso      1.000     C          0.012886  
         C43       1.0000    0.10330   0.75900   0.08560   Biso      1.000     C          0.231309  
         C44       1.0000    0.38410   0.67890   0.05110   Biso      1.000     C          0.651092  
         C45       1.0000    0.40630   0.51510   0.22470   Biso      1.000     C          0.662813  
         C46       1.0000    0.40340   0.67170   0.13230   Biso      1.000     C          -0.039616           
         C47       1.0000    0.40920   0.60640   0.20340   Biso      1.000     C          -0.001915           
         C48       1.0000    0.43060   0.71680   0.22400   Biso      1.000     C          0.211875  
         C49       1.0000    0.93060   0.97000   0.29360   Biso      1.000     C          0.660259  
         C50       1.0000    0.12870   0.95470   0.06950   Biso      1.000     C          0.632767  
         C51       1.0000    0.04360   0.95250   0.25410   Biso      1.000     C          0.015834  
         C52       1.0000    0.12240   0.94340   0.16380   Biso      1.000     C          -0.000923           
         C53       1.0000    0.18890   0.91440   0.25900   Biso      1.000     C          0.23507   
         C54       1.0000    0.06580   0.66380   0.05660   Biso      1.000     C          -0.000694           
         C55       1.0000    0.61590   0.32110   0.94890   Biso      1.000     C          0.651092  
         C56       1.0000    0.61260   0.79660   0.10640   Biso      1.000     C          -0.004765           
         C57       1.0000    0.59660   0.32830   0.86770   Biso      1.000     C          -0.039616           
         C58       1.0000    0.59370   0.48490   0.77530   Biso      1.000     C          0.662813  
         C59       1.0000    0.85260   0.27600   0.71680   Biso      1.000     C          0.212448  
         C60       1.0000    0.98440   0.29660   0.60640   Biso      1.000     C          -0.006134           
         C61       1.0000    0.92490   0.36770   0.67170   Biso      1.000     C          -0.034033           
         C62       1.0000    0.07860   0.27530   0.51510   Biso      1.000     C          0.665111  
         C63       1.0000    0.93700   0.44890   0.67890   Biso      1.000     C          0.650472  
         C64       1.0000    0.13770   0.41440   0.75900   Biso      1.000     C          0.232542  
         C65       1.0000    0.27040   0.44340   0.66380   Biso      1.000     C          0.003636  
         C66       1.0000    0.34710   0.45470   0.56950   Biso      1.000     C          0.629917  
         C67       1.0000    0.30580   0.47000   0.79360   Biso      1.000     C          0.65852   
         C68       1.0000    0.34540   0.22400   0.78320   Biso      1.000     C          0.211176  
         C69       1.0000    0.24980   0.45250   0.75410   Biso      1.000     C          0.011962  
         C70       1.0000    0.46430   0.13230   0.82830   Biso      1.000     C          -0.035375           
         C71       1.0000    0.59080   0.39360   0.79660   Biso      1.000     C          -0.001915           
         C72       1.0000    0.56940   0.28320   0.77600   Biso      1.000     C          0.211875  
         C73       1.0000    0.38740   0.20340   0.89360   Biso      1.000     C          -0.004765           
         C74       1.0000    0.87130   0.04530   0.93050   Biso      1.000     C          0.632767  
         C75       1.0000    0.95640   0.04750   0.74590   Biso      1.000     C          0.015834  
         C76       1.0000    0.06940   0.03000   0.70640   Biso      1.000     C          0.660259  
         C77       1.0000    0.81110   0.08560   0.74100   Biso      1.000     C          0.23507   
         C78       1.0000    0.56480   0.05110   0.82110   Biso      1.000     C          0.648865  
         C79       1.0000    0.36900   0.22470   0.98490   Biso      1.000     C          0.664426  
         C80       1.0000    0.87760   0.05660   0.83620   Biso      1.000     C          -0.000923           
         H1        1.0000    0.05520   0.25220   0.75000   Biso      1.000     H          0.074627  
         H2        1.0000    0.80520   0.25000   0.75220   Biso      1.000     H          0.074593  
         H3        1.0000    0.08150   0.39890   0.78210   Biso      1.000     H          0.079774  
         H4        1.0000    0.30740   0.25000   0.74780   Biso      1.000     H          0.075167  
         H5        1.0000    0.76250   0.10110   0.71790   Biso      1.000     H          0.079609  
         H6        1.0000    0.86360   0.21790   0.89890   Biso      1.000     H          0.080716  
         H7        1.0000    0.48040   0.28210   0.60110   Biso      1.000     H          0.07938   
         H8        1.0000    0.55740   0.24780   0.75000   Biso      1.000     H          0.075242  
         H9        1.0000    0.91850   0.60110   0.21790   Biso      1.000     H          0.079774  
         H10       1.0000    0.19480   0.75000   0.24780   Biso      1.000     H          0.074593  
         H11       1.0000    0.94480   0.74780   0.25000   Biso      1.000     H          0.074627  
         H12       1.0000    0.13640   0.78210   0.10110   Biso      1.000     H          0.080716  
         H13       1.0000    0.44260   0.75220   0.25000   Biso      1.000     H          0.075242  
         H14       1.0000    0.51960   0.71790   0.39890   Biso      1.000     H          0.07938   
         H15       1.0000    0.23750   0.89890   0.28210   Biso      1.000     H          0.079609  
         H16       1.0000    0.69260   0.75000   0.25220   Biso      1.000     H          0.075167  
         N1        1.0000    0.17620   0.13670   0.76090   Biso      1.000     N          -0.42754  
         N2        1.0000    0.86560   0.33150   0.92010   Biso      1.000     N          -0.486476           
         N3        1.0000    0.97950   0.18650   0.93290   Biso      1.000     N          -0.456564           
         N4        1.0000    0.84150   0.35370   0.74210   Biso      1.000     N          -0.462575           
         N5        1.0000    0.58360   0.25790   0.85370   Biso      1.000     N          -0.459342           
         N6        1.0000    0.78570   0.07990   0.83150   Biso      1.000     N          -0.488452           
         N7        1.0000    0.91240   0.06710   0.68650   Biso      1.000     N          -0.460082           
         N8        1.0000    0.31290   0.26090   0.86330   Biso      1.000     N          -0.42658  
         N9        1.0000    0.43730   0.14630   0.75790   Biso      1.000     N          -0.46197  
         N10       1.0000    0.19710   0.42010   0.66850   Biso      1.000     N          -0.49133  
         N11       1.0000    0.16600   0.43290   0.81350   Biso      1.000     N          -0.455734           
         N12       1.0000    0.93710   0.23910   0.63670   Biso      1.000     N          -0.428009           
         N13       1.0000    0.19520   0.24210   0.64630   Biso      1.000     N          -0.461728           
         N14       1.0000    0.57380   0.36330   0.73910   Biso      1.000     N          -0.429856           
         N15       1.0000    0.80290   0.57990   0.33150   Biso      1.000     N          -0.49133  
         N16       1.0000    0.06290   0.76090   0.36330   Biso      1.000     N          -0.428009           
         N17       1.0000    0.59890   0.31350   0.56710   Biso      1.000     N          -0.45647  
         N18       1.0000    0.38280   0.83150   0.42010   Biso      1.000     N          -0.490656           
         N19       1.0000    0.40110   0.68650   0.43290   Biso      1.000     N          -0.45647  
         N20       1.0000    0.82380   0.86330   0.23910   Biso      1.000     N          -0.42754  
         N21       1.0000    0.80480   0.75790   0.35370   Biso      1.000     N          -0.461728           
         N22       1.0000    0.13440   0.66850   0.07990   Biso      1.000     N          -0.486476           
         N23       1.0000    0.15850   0.64630   0.25790   Biso      1.000     N          -0.462575           
         N24       1.0000    0.02050   0.81350   0.06710   Biso      1.000     N          -0.456564           
         N25       1.0000    0.41640   0.74210   0.14630   Biso      1.000     N          -0.459342           
         N26       1.0000    0.21430   0.92010   0.16850   Biso      1.000     N          -0.488452           
         N27       1.0000    0.08760   0.93290   0.31350   Biso      1.000     N          -0.460082           
         N28       1.0000    0.68710   0.73910   0.13670   Biso      1.000     N          -0.42658  
         N29       1.0000    0.56270   0.85370   0.24210   Biso      1.000     N          -0.46197  
         N30       1.0000    0.83400   0.56710   0.18650   Biso      1.000     N          -0.455734           
         N31       1.0000    0.42620   0.63670   0.26090   Biso      1.000     N          -0.429856           
         N32       1.0000    0.61720   0.16850   0.57990   Biso      1.000     N          -0.490656           
         O1        1.0000    0.87110   0.24460   0.50500   Biso      1.000     O          -0.654946           
         O2        1.0000    0.72710   0.54380   0.11860   Biso      1.000     O          -0.644655           
         O3        1.0000    0.30990   0.97030   0.79370   Biso      1.000     O          -0.648807           
         O4        1.0000    0.36620   0.24190   0.49250   Biso      1.000     O          -0.645173           
         O5        1.0000    0.47770   0.12750   0.54450   Biso      1.000     O          -0.67352  
         O6        1.0000    0.77980   0.00150   0.56830   Biso      1.000     O          -0.66502  
         O7        1.0000    0.89860   0.05520   0.51340   Biso      1.000     O          -0.745255           
         O8        1.0000    0.71980   0.70630   0.97030   Biso      1.000     O          -0.648581           
         O9        1.0000    0.56350   0.82160   0.98240   Biso      1.000     O          -0.693957           
         O10       1.0000    0.72910   0.38140   0.54380   Biso      1.000     O          -0.645955           
         O11       1.0000    0.89640   0.79370   0.52970   Biso      1.000     O          -0.647562           
         O12       1.0000    0.14130   0.49250   0.25810   Biso      1.000     O          -0.643998           
         O13       1.0000    0.97780   0.54450   0.37250   Biso      1.000     O          -0.671995           
         O14       1.0000    0.65190   0.56830   0.49850   Biso      1.000     O          -0.665875           
         O15       1.0000    0.58800   0.51340   0.44480   Biso      1.000     O          -0.745786           
         O16       1.0000    0.62390   0.50500   0.25540   Biso      1.000     O          -0.652494           
         O17       1.0000    0.86750   0.67840   0.51760   Biso      1.000     O          -0.695134           
         O18       1.0000    0.39190   0.00750   0.24190   Biso      1.000     O          -0.641418           
         O19       1.0000    0.10140   0.94480   0.48660   Biso      1.000     O          -0.745255           
         O20       1.0000    0.21870   0.93170   0.00150   Biso      1.000     O          -0.666101           
         O21       1.0000    0.45410   0.98240   0.67840   Biso      1.000     O          -0.693448           
         O22       1.0000    0.88950   0.95620   0.38140   Biso      1.000     O          -0.64553  
         O23       1.0000    0.38510   0.48240   0.17840   Biso      1.000     O          -0.693063           
         O24       1.0000    0.42610   0.47030   0.29370   Biso      1.000     O          -0.647926           
         O25       1.0000    0.39940   0.74190   0.99250   Biso      1.000     O          -0.644339           
         O26       1.0000    0.35030   0.62750   0.04450   Biso      1.000     O          -0.671362           
         O27       1.0000    0.15040   0.50150   0.06830   Biso      1.000     O          -0.665219           
         O28       1.0000    0.03280   0.55520   0.01340   Biso      1.000     O          -0.745114           
         O29       1.0000    0.88430   0.99500   0.24460   Biso      1.000     O          -0.65502  
         O30       1.0000    0.87930   0.74460   0.00500   Biso      1.000     O          -0.654019           
         O31       1.0000    0.84570   0.88140   0.04380   Biso      1.000     O          -0.644806           
         O32       1.0000    0.54590   0.01760   0.32160   Biso      1.000     O          -0.693448           
         O33       1.0000    0.69010   0.02970   0.20630   Biso      1.000     O          -0.648807           
         O34       1.0000    0.63380   0.75810   0.50750   Biso      1.000     O          -0.645173           
         O35       1.0000    0.52230   0.87250   0.45550   Biso      1.000     O          -0.67352  
         O36       1.0000    0.22020   0.99850   0.43170   Biso      1.000     O          -0.66502  
         O37       1.0000    0.04620   0.98660   0.05520   Biso      1.000     O          -0.747927           
         O38       1.0000    0.39480   0.95550   0.12750   Biso      1.000     O          -0.673135           
         O39       1.0000    0.15430   0.11860   0.95620   Biso      1.000     O          -0.644806           
         O40       1.0000    0.27090   0.61860   0.45620   Biso      1.000     O          -0.645955           
         O41       1.0000    0.96720   0.44480   0.98660   Biso      1.000     O          -0.745114           
         O42       1.0000    0.12890   0.75540   0.49500   Biso      1.000     O          -0.654946           
         O43       1.0000    0.13250   0.32160   0.48240   Biso      1.000     O          -0.695134           
         O44       1.0000    0.10360   0.20630   0.47030   Biso      1.000     O          -0.647562           
         O45       1.0000    0.12070   0.25540   0.99500   Biso      1.000     O          -0.654019           
         O46       1.0000    0.02220   0.45550   0.62750   Biso      1.000     O          -0.671995           
         O47       1.0000    0.34810   0.43170   0.50150   Biso      1.000     O          -0.665875           
         O48       1.0000    0.41200   0.48660   0.55520   Biso      1.000     O          -0.745786           
         O49       1.0000    0.37610   0.49500   0.74460   Biso      1.000     O          -0.652494           
         O50       1.0000    0.27290   0.45620   0.88140   Biso      1.000     O          -0.644655           
         O51       1.0000    0.43650   0.17840   0.01760   Biso      1.000     O          -0.693957           
         O52       1.0000    0.28020   0.29370   0.02970   Biso      1.000     O          -0.648581           
         O53       1.0000    0.85870   0.50750   0.74190   Biso      1.000     O          -0.643998           
         O54       1.0000    0.60520   0.04450   0.87250   Biso      1.000     O          -0.673135           
         O55       1.0000    0.60810   0.99250   0.75810   Biso      1.000     O          -0.641418           
         O56       1.0000    0.84960   0.49850   0.93170   Biso      1.000     O          -0.665219           
         O57       1.0000    0.60060   0.25810   0.00750   Biso      1.000     O          -0.644339           
         O58       1.0000    0.57390   0.52970   0.70630   Biso      1.000     O          -0.647926           
         O59       1.0000    0.64970   0.37250   0.95550   Biso      1.000     O          -0.671362           
         O60       1.0000    0.11050   0.04380   0.61860   Biso      1.000     O          -0.64553  
         O61       1.0000    0.11570   0.00500   0.75540   Biso      1.000     O          -0.65502  
         O62       1.0000    0.95380   0.01340   0.94480   Biso      1.000     O          -0.747927           
         O63       1.0000    0.78130   0.06830   0.99850   Biso      1.000     O          -0.666101           
         O64       1.0000    0.61490   0.51760   0.82160   Biso      1.000     O          -0.693064           
         Tb1       1.0000    0.58326   0.03309   0.62063   Biso      1.000     Tb          2.017708  
         Tb2       1.0000    0.01181   0.11328   0.52442   Biso      1.000     Tb          2.008196  
         Tb3       1.0000    0.61635   0.12063   0.96691   Biso      1.000     Tb          2.017356  
         Tb4       1.0000    0.14951   0.38672   0.97558   Biso      1.000     Tb          2.007164  
         Tb5       1.0000    0.73698   0.46691   0.87937   Biso      1.000     Tb          2.017609  
         Tb6       1.0000    0.53623   0.47558   0.61328   Biso      1.000     Tb          2.009803  
         Tb7       1.0000    0.12509   0.02442   0.88672   Biso      1.000     Tb          2.009096  
         Tb8       1.0000    0.26302   0.53309   0.12063   Biso      1.000     Tb          2.017609  
         Tb9       1.0000    0.98819   0.88672   0.47558   Biso      1.000     Tb          2.008196  
         Tb10      1.0000    0.38365   0.87937   0.03309   Biso      1.000     Tb          2.017356  
         Tb11      1.0000    0.85049   0.61328   0.02442   Biso      1.000     Tb          2.007164  
         Tb12      1.0000    0.46377   0.52442   0.38672   Biso      1.000     Tb          2.009804  
         Tb13      1.0000    0.41674   0.96691   0.37937   Biso      1.000     Tb          2.017708  
         Tb14      1.0000    0.87491   0.97558   0.11328   Biso      1.000     Tb          2.009096  
         Tb15      1.0000    0.79611   0.62063   0.46691   Biso      1.000     Tb          2.017743  
         Tb16      1.0000    0.20389   0.37937   0.53309   Biso      1.000     Tb          2.017743 