
##########################################################################
#               Crystallographic Information Format file
#               Produced by PyCifRW module
#
#  This is a CIF file.  CIF has been adopted by the International
#  Union of Crystallography as the standard for data archiving and
#  transmission.
#
#  For information on this file format, follow the CIF links at
#  http://www.iucr.org
##########################################################################

data_image0

_cell_length_a                          9.6885
_cell_length_b                          11.817
_cell_length_c                          12.326
_cell_angle_alpha                       90
_cell_angle_beta                        99.26
_cell_angle_gamma                       90
_symmetry_space_group_name_H-M          'P 1'
_symmetry_int_tables_number             1
loop_
  _symmetry_equiv_pos_as_xyz
         'x, y, z' 
loop_
  _atom_site_label
  _atom_site_occupancy
  _atom_site_fract_x
  _atom_site_fract_y
  _atom_site_fract_z
  _atom_site_thermal_displace_type
  _atom_site_B_iso_or_equiv
  _atom_site_type_symbol
  _atom_site_charge
         C1        1.0000    0.99500   0.93480   0.99920   Biso      1.000     C          0.540325  
         C2        1.0000    0.56320   0.99910   0.04760   Biso      1.000     C          0.547496  
         C3        1.0000    0.19970   0.20950   0.29480   Biso      1.000     C          0.526963  
         C4        1.0000    0.29990   0.25310   0.21740   Biso      1.000     C          0.535924  
         C5        1.0000    0.93680   0.49910   0.45240   Biso      1.000     C          0.547501  
         C6        1.0000    0.30030   0.70950   0.20520   Biso      1.000     C          0.526962  
         C7        1.0000    0.20010   0.75310   0.28260   Biso      1.000     C          0.5359229999999999  
         C8        1.0000    0.50500   0.43480   0.50080   Biso      1.000     C          0.540337  
         C9        1.0000    0.80030   0.79050   0.70520   Biso      1.000     C          0.526961  
         C10       1.0000    0.43680   0.00090   0.95240   Biso      1.000     C          0.5474939999999999  
         C11       1.0000    0.00500   0.06520   0.00080   Biso      1.000     C          0.540323  
         C12       1.0000    0.06320   0.50090   0.54760   Biso      1.000     C          0.547501  
         C13       1.0000    0.69970   0.29050   0.79480   Biso      1.000     C          0.526965  
         C14       1.0000    0.79990   0.24690   0.71740   Biso      1.000     C          0.535927  
         C15       1.0000    0.49500   0.56520   0.49920   Biso      1.000     C          0.540341  
         C16       1.0000    0.70010   0.74690   0.78260   Biso      1.000     C          0.53592   
         O1        1.0000    0.31380   0.60450   0.19890   Biso      1.000     O          -0.513998           
         O2        1.0000    0.19300   0.85770   0.29500   Biso      1.000     O          -0.5207350000000001           
         O3        1.0000    0.13340   0.67969   0.32700   Biso      1.000     O          -0.507236           
         O4        1.0000    0.60110   0.39210   0.56780   Biso      1.000     O          -0.526492           
         O5        1.0000    0.41700   0.38180   0.43420   Biso      1.000     O          -0.5293760000000001           
         O6        1.0000    0.36000   0.78340   0.15620   Biso      1.000     O          -0.49394499999999997          
         O7        1.0000    0.96640   0.48490   0.35760   Biso      1.000     O          -0.521324           
         O8        1.0000    0.68620   0.39550   0.80110   Biso      1.000     O          -0.513999           
         O9        1.0000    0.08300   0.88180   0.06580   Biso      1.000     O          -0.529373           
         O10       1.0000    0.89890   0.89210   0.93220   Biso      1.000     O          -0.526488           
         O11       1.0000    0.36660   0.17969   0.17300   Biso      1.000     O          -0.5072369999999999           
         O12       1.0000    0.31860   0.98750   0.97750   Biso      1.000     O          -0.51854  
         O13       1.0000    0.30700   0.35770   0.20500   Biso      1.000     O          -0.5207390000000001           
         O14       1.0000    0.14000   0.28340   0.34380   Biso      1.000     O          -0.49394799999999994          
         O15       1.0000    0.18620   0.10450   0.30110   Biso      1.000     O          -0.513998           
         O16       1.0000    0.81860   0.51250   0.47750   Biso      1.000     O          -0.518545           
         O17       1.0000    0.46640   0.01510   0.85760   Biso      1.000     O          -0.521324           
         O18       1.0000    0.68140   0.01250   0.02250   Biso      1.000     O          -0.51854  
         O19       1.0000    0.86000   0.71660   0.65620   Biso      1.000     O          -0.493946           
         O20       1.0000    0.58300   0.61820   0.56580   Biso      1.000     O          -0.5293760000000001           
         O21       1.0000    0.39890   0.60790   0.43220   Biso      1.000     O          -0.526492           
         O22       1.0000    0.86660   0.32031   0.67300   Biso      1.000     O          -0.507238           
         O23       1.0000    0.80700   0.14230   0.70500   Biso      1.000     O          -0.520737           
         O24       1.0000    0.81380   0.89550   0.69890   Biso      1.000     O          -0.513997           
         O25       1.0000    0.53360   0.98490   0.14240   Biso      1.000     O          -0.521324           
         O26       1.0000    0.64000   0.21660   0.84380   Biso      1.000     O          -0.493946           
         O27       1.0000    0.18140   0.48750   0.52250   Biso      1.000     O          -0.518545           
         O28       1.0000    0.91700   0.11820   0.93420   Biso      1.000     O          -0.529373           
         O29       1.0000    0.10110   0.10790   0.06780   Biso      1.000     O          -0.526488           
         O30       1.0000    0.63340   0.82031   0.82700   Biso      1.000     O          -0.507235           
         O31       1.0000    0.69300   0.64230   0.79500   Biso      1.000     O          -0.520738           
         O32       1.0000    0.03360   0.51510   0.64240   Biso      1.000     O          -0.521324           
         Sm1       1.0000    0.28638   0.98355   0.16952   Biso      1.000     Sm          1.980935  
         Sm2       1.0000    0.21362   0.48355   0.33048   Biso      1.000     Sm          1.9809310000000002  
         Sm3       1.0000    0.71362   0.01645   0.83048   Biso      1.000     Sm          1.980935  
         Sm4       1.0000    0.78638   0.51645   0.66952   Biso      1.000     Sm          1.9809310000000002 