
##########################################################################
#               Crystallographic Information Format file
#               Produced by PyCifRW module
#
#  This is a CIF file.  CIF has been adopted by the International
#  Union of Crystallography as the standard for data archiving and
#  transmission.
#
#  For information on this file format, follow the CIF links at
#  http://www.iucr.org
##########################################################################

data_image0

_cell_length_a                          9.6661
_cell_length_b                          11.737
_cell_length_c                          12.315
_cell_angle_alpha                       90
_cell_angle_beta                        99.24
_cell_angle_gamma                       90
_symmetry_space_group_name_H-M          'P 1'
_symmetry_int_tables_number             1
loop_
  _symmetry_equiv_pos_as_xyz
         'x, y, z' 
loop_
  _atom_site_label
  _atom_site_occupancy
  _atom_site_fract_x
  _atom_site_fract_y
  _atom_site_fract_z
  _atom_site_thermal_displace_type
  _atom_site_B_iso_or_equiv
  _atom_site_type_symbol
  _atom_site_charge
         C1        1.0000    0.30020   0.75390   0.21720   Biso      1.000     C          0.507194  
         C2        1.0000    0.00500   0.56540   0.00010   Biso      1.000     C          0.51268   
         C3        1.0000    0.56290   0.49960   0.04710   Biso      1.000     C          0.517262  
         C4        1.0000    0.19900   0.71000   0.29460   Biso      1.000     C          0.500959  
         C5        1.0000    0.69900   0.79000   0.79460   Biso      1.000     C          0.500957  
         C6        1.0000    0.80020   0.74610   0.71720   Biso      1.000     C          0.507193  
         C7        1.0000    0.06290   0.00040   0.54710   Biso      1.000     C          0.517262  
         C8        1.0000    0.50500   0.93460   0.50010   Biso      1.000     C          0.512691  
         C9        1.0000    0.80100   0.29000   0.70540   Biso      1.000     C          0.500958  
         C10       1.0000    0.69980   0.24610   0.78280   Biso      1.000     C          0.507191  
         C11       1.0000    0.43710   0.50040   0.95290   Biso      1.000     C          0.517262  
         C12       1.0000    0.99500   0.43460   0.99990   Biso      1.000     C          0.512677  
         C13       1.0000    0.30100   0.21000   0.20540   Biso      1.000     C          0.500956  
         C14       1.0000    0.19980   0.25390   0.28280   Biso      1.000     C          0.507193  
         C15       1.0000    0.93710   0.99960   0.45290   Biso      1.000     C          0.517261  
         C16       1.0000    0.49500   0.06540   0.49990   Biso      1.000     C          0.512688  
         Eu1       1.0000    0.78615   0.01558   0.66907   Biso      1.000     Eu          1.247772  
         Eu2       1.0000    0.21385   0.98442   0.33093   Biso      1.000     Eu          1.247774  
         Eu3       1.0000    0.71385   0.51558   0.83093   Biso      1.000     Eu          1.247784  
         Eu4       1.0000    0.28615   0.48442   0.16907   Biso      1.000     Eu          1.247786  
         O1        1.0000    0.31590   0.10490   0.20000   Biso      1.000     O          -0.383255           
         O2        1.0000    0.35970   0.28450   0.15580   Biso      1.000     O          -0.4212   
         O3        1.0000    0.13450   0.18030   0.32780   Biso      1.000     O          -0.430232           
         O4        1.0000    0.19230   0.35900   0.29440   Biso      1.000     O          -0.390831           
         O5        1.0000    0.96590   0.98600   0.35720   Biso      1.000     O          -0.391854           
         O6        1.0000    0.81830   0.01260   0.47770   Biso      1.000     O          -0.428199           
         O7        1.0000    0.39840   0.10910   0.43290   Biso      1.000     O          -0.420382           
         O8        1.0000    0.18410   0.60490   0.30000   Biso      1.000     O          -0.383259           
         O9        1.0000    0.14030   0.78450   0.34420   Biso      1.000     O          -0.4212   
         O10       1.0000    0.36550   0.68030   0.17220   Biso      1.000     O          -0.430231           
         O11       1.0000    0.30770   0.85900   0.20560   Biso      1.000     O          -0.390831           
         O12       1.0000    0.53410   0.48600   0.14280   Biso      1.000     O          -0.391865           
         O13       1.0000    0.68170   0.51260   0.02230   Biso      1.000     O          -0.428191           
         O14       1.0000    0.58400   0.11800   0.56620   Biso      1.000     O          -0.419916           
         O15       1.0000    0.08400   0.38200   0.06620   Biso      1.000     O          -0.419911           
         O16       1.0000    0.18170   0.98740   0.52230   Biso      1.000     O          -0.428199           
         O17       1.0000    0.31830   0.48740   0.97770   Biso      1.000     O          -0.428193           
         O18       1.0000    0.46590   0.51400   0.85720   Biso      1.000     O          -0.391866           
         O19       1.0000    0.69230   0.14100   0.79440   Biso      1.000     O          -0.390825           
         O20       1.0000    0.63450   0.31970   0.82780   Biso      1.000     O          -0.43024  
         O21       1.0000    0.85970   0.21550   0.65580   Biso      1.000     O          -0.421211           
         O22       1.0000    0.81590   0.39510   0.70000   Biso      1.000     O          -0.383253           
         O23       1.0000    0.41600   0.88200   0.43380   Biso      1.000     O          -0.419921           
         O24       1.0000    0.60160   0.89090   0.56710   Biso      1.000     O          -0.420384           
         O25       1.0000    0.10160   0.60910   0.06710   Biso      1.000     O          -0.420386           
         O26       1.0000    0.03410   0.01400   0.64280   Biso      1.000     O          -0.391854           
         O27       1.0000    0.80770   0.64100   0.70560   Biso      1.000     O          -0.390828           
         O28       1.0000    0.86550   0.81970   0.67220   Biso      1.000     O          -0.430235           
         O29       1.0000    0.64030   0.71550   0.84420   Biso      1.000     O          -0.421205           
         O30       1.0000    0.68410   0.89510   0.80000   Biso      1.000     O          -0.383252           
         O31       1.0000    0.89840   0.39090   0.93290   Biso      1.000     O          -0.420382           
         O32       1.0000    0.91600   0.61800   0.93380   Biso      1.000     O          -0.419911 