
##########################################################################
#               Crystallographic Information Format file
#               Produced by PyCifRW module
#
#  This is a CIF file.  CIF has been adopted by the International
#  Union of Crystallography as the standard for data archiving and
#  transmission.
#
#  For information on this file format, follow the CIF links at
#  http://www.iucr.org
##########################################################################

data_image0

_cell_length_a                          9.7166
_cell_length_b                          11.926
_cell_length_c                          12.38
_cell_angle_alpha                       90
_cell_angle_beta                        99.42
_cell_angle_gamma                       90
_symmetry_space_group_name_H-M          'P 1'
_symmetry_int_tables_number             1
loop_
  _symmetry_equiv_pos_as_xyz
         'x, y, z' 
loop_
  _atom_site_label
  _atom_site_occupancy
  _atom_site_fract_x
  _atom_site_fract_y
  _atom_site_fract_z
  _atom_site_thermal_displace_type
  _atom_site_B_iso_or_equiv
  _atom_site_type_symbol
  _atom_site_charge
         C1        1.0000    0.99400   0.93580   0.99820   Biso      1.000     C          0.534406  
         C2        1.0000    0.29850   0.70710   0.20420   Biso      1.000     C          0.523203  
         C3        1.0000    0.19920   0.75060   0.28220   Biso      1.000     C          0.532352  
         C4        1.0000    0.56250   0.99830   0.04720   Biso      1.000     C          0.540247  
         C5        1.0000    0.06250   0.50170   0.54720   Biso      1.000     C          0.540246  
         C6        1.0000    0.49400   0.56420   0.49820   Biso      1.000     C          0.5344    
         C7        1.0000    0.69920   0.74940   0.78220   Biso      1.000     C          0.532351  
         C8        1.0000    0.79850   0.79290   0.70420   Biso      1.000     C          0.523201  
         C9        1.0000    0.43750   0.00170   0.95280   Biso      1.000     C          0.540244  
         C10       1.0000    0.00600   0.06420   0.00180   Biso      1.000     C          0.534407  
         C11       1.0000    0.80080   0.24940   0.71780   Biso      1.000     C          0.532351  
         C12       1.0000    0.70150   0.29290   0.79580   Biso      1.000     C          0.523203  
         C13       1.0000    0.93750   0.49830   0.45280   Biso      1.000     C          0.540248  
         C14       1.0000    0.50600   0.43580   0.50180   Biso      1.000     C          0.534399  
         C15       1.0000    0.30080   0.25060   0.21780   Biso      1.000     C          0.532352  
         C16       1.0000    0.20150   0.20710   0.29580   Biso      1.000     C          0.5232020000000001  
         Nd1       1.0000    0.78712   0.51854   0.67074   Biso      1.000     Nd          1.979941  
         Nd2       1.0000    0.21288   0.48146   0.32926   Biso      1.000     Nd          1.97995   
         Nd3       1.0000    0.71288   0.01854   0.82926   Biso      1.000     Nd          1.9799369999999998  
         Nd4       1.0000    0.28712   0.98146   0.17074   Biso      1.000     Nd          1.979945  
         O1        1.0000    0.81900   0.51320   0.47700   Biso      1.000     O          -0.515844           
         O2        1.0000    0.96540   0.48200   0.35880   Biso      1.000     O          -0.521321           
         O3        1.0000    0.60040   0.39370   0.57010   Biso      1.000     O          -0.528516           
         O4        1.0000    0.41890   0.38170   0.43470   Biso      1.000     O          -0.528428           
         O5        1.0000    0.30510   0.35420   0.20340   Biso      1.000     O          -0.518123           
         O6        1.0000    0.36770   0.17800   0.17430   Biso      1.000     O          -0.500358           
         O7        1.0000    0.14100   0.28050   0.34390   Biso      1.000     O          -0.48898100000000005          
         O8        1.0000    0.68100   0.01320   0.02300   Biso      1.000     O          -0.515841           
         O9        1.0000    0.53460   0.98200   0.14120   Biso      1.000     O          -0.521323           
         O10       1.0000    0.89960   0.89370   0.92990   Biso      1.000     O          -0.528519           
         O11       1.0000    0.08110   0.88170   0.06530   Biso      1.000     O          -0.528429           
         O12       1.0000    0.19490   0.85420   0.29660   Biso      1.000     O          -0.518123           
         O13       1.0000    0.13230   0.67800   0.32570   Biso      1.000     O          -0.5003569999999999           
         O14       1.0000    0.18980   0.10340   0.30370   Biso      1.000     O          -0.50857  
         O15       1.0000    0.68980   0.39660   0.80370   Biso      1.000     O          -0.508568           
         O16       1.0000    0.63230   0.82200   0.82570   Biso      1.000     O          -0.500364           
         O17       1.0000    0.86770   0.32200   0.67430   Biso      1.000     O          -0.500365           
         O18       1.0000    0.80510   0.14580   0.70340   Biso      1.000     O          -0.518121           
         O19       1.0000    0.91890   0.11830   0.93470   Biso      1.000     O          -0.528428           
         O20       1.0000    0.10040   0.10630   0.07010   Biso      1.000     O          -0.528521           
         O21       1.0000    0.46540   0.01800   0.85880   Biso      1.000     O          -0.521319           
         O22       1.0000    0.31900   0.98680   0.97700   Biso      1.000     O          -0.515842           
         O23       1.0000    0.81020   0.89660   0.69630   Biso      1.000     O          -0.5085689999999999           
         O24       1.0000    0.85900   0.71950   0.65610   Biso      1.000     O          -0.48898800000000003          
         O25       1.0000    0.35900   0.78050   0.15610   Biso      1.000     O          -0.488979           
         O26       1.0000    0.69490   0.64580   0.79660   Biso      1.000     O          -0.518121           
         O27       1.0000    0.58110   0.61830   0.56530   Biso      1.000     O          -0.5284270000000001           
         O28       1.0000    0.39960   0.60630   0.42990   Biso      1.000     O          -0.528518           
         O29       1.0000    0.03460   0.51800   0.64120   Biso      1.000     O          -0.521317           
         O30       1.0000    0.18100   0.48680   0.52300   Biso      1.000     O          -0.515845           
         O31       1.0000    0.64100   0.21950   0.84390   Biso      1.000     O          -0.488989           
         O32       1.0000    0.31020   0.60340   0.19630   Biso      1.000     O          -0.50857 