
##########################################################################
#               Crystallographic Information Format file
#               Produced by PyCifRW module
#
#  This is a CIF file.  CIF has been adopted by the International
#  Union of Crystallography as the standard for data archiving and
#  transmission.
#
#  For information on this file format, follow the CIF links at
#  http://www.iucr.org
##########################################################################

data_image0

_cell_length_a                          16.001
_cell_length_b                          16.3796
_cell_length_c                          16.3796
_cell_angle_alpha                       76.1974
_cell_angle_beta                        60.7617
_cell_angle_gamma                       60.7617
_symmetry_space_group_name_H-M          'P 1'
_symmetry_int_tables_number             1
loop_
  _symmetry_equiv_pos_as_xyz
         'x, y, z' 
loop_
  _atom_site_label
  _atom_site_occupancy
  _atom_site_fract_x
  _atom_site_fract_y
  _atom_site_fract_z
  _atom_site_thermal_displace_type
  _atom_site_B_iso_or_equiv
  _atom_site_type_symbol
  _atom_site_charge
         C1        1.0000    0.98450   0.60620   0.29580   Biso      1.000     C          -0.00296  
         C2        1.0000    0.18780   0.25990   0.91510   Biso      1.000     C          0.2393    
         C3        1.0000    0.43560   0.18000   0.94740   Biso      1.000     C          0.645506  
         C4        1.0000    0.63090   0.01500   0.77480   Biso      1.000     C          0.670311  
         C5        1.0000    0.53560   0.17190   0.86710   Biso      1.000     C          -0.041368           
         C6        1.0000    0.61350   0.10620   0.79580   Biso      1.000     C          -0.002989           
         C7        1.0000    0.65470   0.21810   0.77530   Biso      1.000     C          0.213241  
         C8        1.0000    0.90030   0.03130   0.79370   Biso      1.000     C          0.653522  
         C9        1.0000    0.12310   0.16300   0.94440   Biso      1.000     C          0.003761  
         C10       1.0000    0.08310   0.04530   0.56890   Biso      1.000     C          0.627883  
         C11       1.0000    0.06750   0.05560   0.66300   Biso      1.000     C          0.004044  
         C12       1.0000    0.10290   0.08490   0.75990   Biso      1.000     C          0.236231  
         C13       1.0000    0.38300   0.05260   0.68000   Biso      1.000     C          0.647214  
         C14       1.0000    0.40570   0.22520   0.51500   Biso      1.000     C          0.672135  
         C15       1.0000    0.40270   0.13290   0.67190   Biso      1.000     C          -0.041317           
         C16       1.0000    0.40930   0.20420   0.60620   Biso      1.000     C          -0.00462  
         C17       1.0000    0.43000   0.22470   0.71810   Biso      1.000     C          0.210699  
         C18       1.0000    0.99600   0.04740   0.75460   Biso      1.000     C          0.008624  
         C19       1.0000    0.22530   0.46870   0.70630   Biso      1.000     C          0.652353  
         C20       1.0000    0.04340   0.25460   0.95260   Biso      1.000     C          0.009403  
         C21       1.0000    0.93160   0.29370   0.96870   Biso      1.000     C          0.652134  
         C22       1.0000    0.55230   0.58490   0.25990   Biso      1.000     C          0.237662  
         C23       1.0000    0.38440   0.55260   0.18000   Biso      1.000     C          0.645269  
         C24       1.0000    0.35410   0.72520   0.01500   Biso      1.000     C          0.671942  
         C25       1.0000    0.29250   0.63290   0.17190   Biso      1.000     C          -0.041334           
         C26       1.0000    0.28030   0.70420   0.10620   Biso      1.000     C          -0.002938           
         C27       1.0000    0.12720   0.72470   0.21810   Biso      1.000     C          0.211967  
         C28       1.0000    0.69400   0.20630   0.53130   Biso      1.000     C          0.653269  
         C29       1.0000    0.12840   0.06890   0.95470   Biso      1.000     C          0.631591  
         C30       1.0000    0.65200   0.43110   0.54530   Biso      1.000     C          0.626035  
         C31       1.0000    0.73050   0.33700   0.55560   Biso      1.000     C          0.006777  
         C32       1.0000    0.86280   0.24010   0.58490   Biso      1.000     C          0.238779  
         C33       1.0000    0.06300   0.32000   0.55260   Biso      1.000     C          0.647151  
         C34       1.0000    0.92070   0.48500   0.72520   Biso      1.000     C          0.673805  
         C35       1.0000    0.07460   0.32810   0.63290   Biso      1.000     C          -0.041038           
         C36       1.0000    0.01550   0.39380   0.70420   Biso      1.000     C          -0.00296  
         C37       1.0000    0.14810   0.28190   0.72470   Biso      1.000     C          0.209126  
         C38       1.0000    0.75060   0.24540   0.54740   Biso      1.000     C          0.008065  
         C39       1.0000    0.19730   0.45470   0.93110   Biso      1.000     C          0.629026  
         C40       1.0000    0.29800   0.45260   0.74540   Biso      1.000     C          0.005004  
         C41       1.0000    0.28610   0.44440   0.83700   Biso      1.000     C          0.004313  
         C42       1.0000    0.36910   0.98500   0.22520   Biso      1.000     C          0.67031   
         C43       1.0000    0.56440   0.82000   0.05260   Biso      1.000     C          0.645506  
         C44       1.0000    0.81220   0.74010   0.08490   Biso      1.000     C          0.2393    
         C45       1.0000    0.87690   0.83700   0.05560   Biso      1.000     C          0.003761  
         C46       1.0000    0.95660   0.74540   0.04740   Biso      1.000     C          0.009404  
         C47       1.0000    0.87160   0.93110   0.04530   Biso      1.000     C          0.631591  
         C48       1.0000    0.06840   0.70630   0.03130   Biso      1.000     C          0.652134  
         C49       1.0000    0.46440   0.82810   0.13290   Biso      1.000     C          -0.041368           
         C50       1.0000    0.85190   0.71810   0.27530   Biso      1.000     C          0.209126  
         C51       1.0000    0.07930   0.51500   0.27480   Biso      1.000     C          0.673805  
         C52       1.0000    0.93700   0.68000   0.44740   Biso      1.000     C          0.647151  
         C53       1.0000    0.13720   0.75990   0.41510   Biso      1.000     C          0.238779  
         C54       1.0000    0.26950   0.66300   0.44440   Biso      1.000     C          0.006777  
         C55       1.0000    0.24940   0.75460   0.45260   Biso      1.000     C          0.008065  
         C56       1.0000    0.34800   0.56890   0.45470   Biso      1.000     C          0.626035  
         C57       1.0000    0.30600   0.79370   0.46870   Biso      1.000     C          0.65327   
         C58       1.0000    0.92540   0.67190   0.36710   Biso      1.000     C          -0.041038           
         C59       1.0000    0.38650   0.89380   0.20420   Biso      1.000     C          -0.002989           
         C60       1.0000    0.34530   0.78190   0.22470   Biso      1.000     C          0.213241  
         C61       1.0000    0.09970   0.96870   0.20630   Biso      1.000     C          0.653522  
         C62       1.0000    0.44770   0.41510   0.74010   Biso      1.000     C          0.237662  
         C63       1.0000    0.61560   0.44740   0.82000   Biso      1.000     C          0.64527   
         C64       1.0000    0.64590   0.27480   0.98500   Biso      1.000     C          0.671942  
         C65       1.0000    0.70750   0.36710   0.82810   Biso      1.000     C          -0.041334           
         C66       1.0000    0.71970   0.29580   0.89380   Biso      1.000     C          -0.002938           
         C67       1.0000    0.87280   0.27530   0.78190   Biso      1.000     C          0.211967  
         C68       1.0000    0.80270   0.54530   0.06890   Biso      1.000     C          0.629026  
         C69       1.0000    0.77470   0.53130   0.29370   Biso      1.000     C          0.652353  
         C70       1.0000    0.57000   0.77530   0.28190   Biso      1.000     C          0.210699  
         C71       1.0000    0.59070   0.79580   0.39380   Biso      1.000     C          -0.00462  
         C72       1.0000    0.59730   0.86710   0.32810   Biso      1.000     C          -0.041317           
         C73       1.0000    0.59430   0.77480   0.48500   Biso      1.000     C          0.672135  
         C74       1.0000    0.61700   0.94740   0.32000   Biso      1.000     C          0.647214  
         C75       1.0000    0.89710   0.91510   0.24010   Biso      1.000     C          0.236231  
         C76       1.0000    0.93250   0.94440   0.33700   Biso      1.000     C          0.004045  
         C77       1.0000    0.00400   0.95260   0.24540   Biso      1.000     C          0.008624  
         C78       1.0000    0.91690   0.95470   0.43110   Biso      1.000     C          0.627883  
         C79       1.0000    0.71390   0.55560   0.16300   Biso      1.000     C          0.004313  
         C80       1.0000    0.70200   0.54740   0.25460   Biso      1.000     C          0.005004  
         Dy1       1.0000    0.41765   0.37961   0.96619   Biso      1.000     Dy          2.017082  
         Dy2       1.0000    0.58235   0.62039   0.03381   Biso      1.000     Dy          2.017082  
         Dy3       1.0000    0.87537   0.11309   0.97501   Biso      1.000     Dy          2.009312  
         Dy4       1.0000    0.26345   0.12039   0.53381   Biso      1.000     Dy          2.017262  
         Dy5       1.0000    0.46347   0.38691   0.52499   Biso      1.000     Dy          2.008512  
         Dy6       1.0000    0.38384   0.03381   0.87961   Biso      1.000     Dy          2.017557  
         Dy7       1.0000    0.85038   0.02499   0.61309   Biso      1.000     Dy          2.008482  
         Dy8       1.0000    0.79726   0.46619   0.62039   Biso      1.000     Dy          2.018856  
         Dy9       1.0000    0.98846   0.47501   0.88691   Biso      1.000     Dy          2.008784  
         Dy10      1.0000    0.12463   0.88691   0.02499   Biso      1.000     Dy          2.009312  
         Dy11      1.0000    0.73655   0.87961   0.46619   Biso      1.000     Dy          2.017263  
         Dy12      1.0000    0.53653   0.61309   0.47501   Biso      1.000     Dy          2.008512  
         Dy13      1.0000    0.61616   0.96619   0.12039   Biso      1.000     Dy          2.017558  
         Dy14      1.0000    0.14962   0.97501   0.38691   Biso      1.000     Dy          2.008482  
         Dy15      1.0000    0.20274   0.53381   0.37961   Biso      1.000     Dy          2.018856  
         Dy16      1.0000    0.01154   0.52499   0.11309   Biso      1.000     Dy          2.008784  
         H1        1.0000    0.08020   0.78340   0.40040   Biso      1.000     H          0.077752  
         H2        1.0000    0.80520   0.75480   0.24860   Biso      1.000     H          0.074524  
         H3        1.0000    0.51940   0.40040   0.71660   Biso      1.000     H          0.076571  
         H4        1.0000    0.94620   0.24860   0.74520   Biso      1.000     H          0.074272  
         H5        1.0000    0.76400   0.71660   0.09960   Biso      1.000     H          0.076727  
         H6        1.0000    0.30860   0.74520   0.25140   Biso      1.000     H          0.07351   
         H7        1.0000    0.86360   0.90040   0.21660   Biso      1.000     H          0.078353  
         H8        1.0000    0.48060   0.59960   0.28340   Biso      1.000     H          0.076571  
         H9        1.0000    0.05380   0.75140   0.25480   Biso      1.000     H          0.074272  
         H10       1.0000    0.56000   0.74860   0.24520   Biso      1.000     H          0.074836  
         H11       1.0000    0.19480   0.24520   0.75140   Biso      1.000     H          0.074524  
         H12       1.0000    0.23600   0.28340   0.90040   Biso      1.000     H          0.076727  
         H13       1.0000    0.69140   0.25480   0.74860   Biso      1.000     H          0.07351   
         H14       1.0000    0.13640   0.09960   0.78340   Biso      1.000     H          0.078353  
         H15       1.0000    0.44000   0.25140   0.75480   Biso      1.000     H          0.074836  
         H16       1.0000    0.91980   0.21660   0.59960   Biso      1.000     H          0.077752  
         N1        1.0000    0.59810   0.56700   0.31440   Biso      1.000     N          -0.451598           
         N2        1.0000    0.86480   0.91960   0.33180   Biso      1.000     N          -0.489742           
         N3        1.0000    0.61620   0.58040   0.16820   Biso      1.000     N          -0.489807           
         N4        1.0000    0.58320   0.85320   0.25720   Biso      1.000     N          -0.460154           
         N5        1.0000    0.57240   0.73780   0.36400   Biso      1.000     N          -0.428455           
         N6        1.0000    0.97950   0.93300   0.18560   Biso      1.000     N          -0.454361           
         N7        1.0000    0.43640   0.75720   0.14680   Biso      1.000     N          -0.460495           
         N8        1.0000    0.19660   0.66820   0.41960   Biso      1.000     N          -0.49295  
         N9        1.0000    0.91250   0.68560   0.06700   Biso      1.000     N          -0.455011           
         N10       1.0000    0.78440   0.83180   0.08040   Biso      1.000     N          -0.49088  
         N11       1.0000    0.84040   0.74280   0.35320   Biso      1.000     N          -0.45744  
         N12       1.0000    0.93640   0.63600   0.23780   Biso      1.000     N          -0.431585           
         N13       1.0000    0.16510   0.81440   0.43300   Biso      1.000     N          -0.454546           
         N14       1.0000    0.17420   0.76220   0.13600   Biso      1.000     N          -0.431057           
         N15       1.0000    0.31020   0.86400   0.26220   Biso      1.000     N          -0.430287           
         N16       1.0000    0.19360   0.64680   0.24280   Biso      1.000     N          -0.459727           
         N17       1.0000    0.80340   0.33180   0.58040   Biso      1.000     N          -0.49295  
         N18       1.0000    0.83490   0.18560   0.56700   Biso      1.000     N          -0.454546           
         N19       1.0000    0.82580   0.23780   0.86400   Biso      1.000     N          -0.431057           
         N20       1.0000    0.40190   0.43300   0.68560   Biso      1.000     N          -0.451598           
         N21       1.0000    0.38380   0.41960   0.83180   Biso      1.000     N          -0.489807           
         N22       1.0000    0.41680   0.14680   0.74280   Biso      1.000     N          -0.460154           
         N23       1.0000    0.42760   0.26220   0.63600   Biso      1.000     N          -0.428455           
         N24       1.0000    0.02050   0.06700   0.81440   Biso      1.000     N          -0.454361           
         N25       1.0000    0.80640   0.35320   0.75720   Biso      1.000     N          -0.459727           
         N26       1.0000    0.56360   0.24280   0.85320   Biso      1.000     N          -0.460495           
         N27       1.0000    0.68980   0.13600   0.73780   Biso      1.000     N          -0.430287           
         N28       1.0000    0.08750   0.31440   0.93300   Biso      1.000     N          -0.455011           
         N29       1.0000    0.21560   0.16820   0.91960   Biso      1.000     N          -0.49088  
         N30       1.0000    0.15960   0.25720   0.64680   Biso      1.000     N          -0.45744  
         N31       1.0000    0.06360   0.36400   0.76220   Biso      1.000     N          -0.431584           
         N32       1.0000    0.13520   0.08040   0.66820   Biso      1.000     N          -0.489742           
         O1        1.0000    0.84760   0.93210   0.49870   Biso      1.000     O          -0.672002           
         O2        1.0000    0.64910   0.95570   0.37190   Biso      1.000     O          -0.669777           
         O3        1.0000    0.60120   0.00760   0.25700   Biso      1.000     O          -0.648717           
         O4        1.0000    0.57510   0.70590   0.52870   Biso      1.000     O          -0.648973           
         O5        1.0000    0.61560   0.82020   0.51740   Biso      1.000     O          -0.688873           
         O6        1.0000    0.87170   0.50600   0.24340   Biso      1.000     O          -0.664105           
         O7        1.0000    0.77840   0.56790   0.00130   Biso      1.000     O          -0.670748           
         O8        1.0000    0.89880   0.51310   0.05430   Biso      1.000     O          -0.735218           
         O9        1.0000    0.47670   0.54430   0.12810   Biso      1.000     O          -0.668434           
         O10       1.0000    0.36580   0.49240   0.24300   Biso      1.000     O          -0.64853  
         O11       1.0000    0.30970   0.79410   0.97130   Biso      1.000     O          -0.649248           
         O12       1.0000    0.96620   0.98690   0.44570   Biso      1.000     O          -0.73285  
         O13       1.0000    0.72940   0.54370   0.38170   Biso      1.000     O          -0.632934           
         O14       1.0000    0.15480   0.95630   0.11830   Biso      1.000     O          -0.6329   
         O15       1.0000    0.11110   0.61830   0.04370   Biso      1.000     O          -0.633134           
         O16       1.0000    0.43580   0.01740   0.17980   Biso      1.000     O          -0.688327           
         O17       1.0000    0.28100   0.02870   0.29410   Biso      1.000     O          -0.648096           
         O18       1.0000    0.60880   0.75700   0.99240   Biso      1.000     O          -0.647862           
         O19       1.0000    0.60480   0.87190   0.04430   Biso      1.000     O          -0.669607           
         O20       1.0000    0.77970   0.99870   0.06790   Biso      1.000     O          -0.673035           
         O21       1.0000    0.95310   0.94570   0.01310   Biso      1.000     O          -0.736304           
         O22       1.0000    0.45320   0.67980   0.98260   Biso      1.000     O          -0.688458           
         O23       1.0000    0.11510   0.75660   0.00600   Biso      1.000     O          -0.665535           
         O24       1.0000    0.13300   0.48260   0.32020   Biso      1.000     O          -0.690741           
         O25       1.0000    0.10380   0.47130   0.20590   Biso      1.000     O          -0.64897  
         O26       1.0000    0.85820   0.74300   0.50760   Biso      1.000     O          -0.648716           
         O27       1.0000    0.02100   0.62810   0.45570   Biso      1.000     O          -0.670026           
         O28       1.0000    0.34630   0.50130   0.43210   Biso      1.000     O          -0.669865           
         O29       1.0000    0.41190   0.55430   0.48690   Biso      1.000     O          -0.734003           
         O30       1.0000    0.12110   0.99400   0.25660   Biso      1.000     O          -0.665975           
         O31       1.0000    0.62230   0.25660   0.50600   Biso      1.000     O          -0.666066           
         O32       1.0000    0.54680   0.32020   0.01740   Biso      1.000     O          -0.688458           
         O33       1.0000    0.58810   0.44570   0.51310   Biso      1.000     O          -0.734003           
         O34       1.0000    0.27310   0.88170   0.45630   Biso      1.000     O          -0.63385  
         O35       1.0000    0.69030   0.20590   0.02870   Biso      1.000     O          -0.649248           
         O36       1.0000    0.63420   0.50760   0.75700   Biso      1.000     O          -0.64853  
         O37       1.0000    0.52330   0.45570   0.87190   Biso      1.000     O          -0.668434           
         O38       1.0000    0.22160   0.43210   0.99870   Biso      1.000     O          -0.670748           
         O39       1.0000    0.10120   0.48690   0.94570   Biso      1.000     O          -0.735218           
         O40       1.0000    0.27060   0.45630   0.61830   Biso      1.000     O          -0.632934           
         O41       1.0000    0.12830   0.49400   0.75660   Biso      1.000     O          -0.664105           
         O42       1.0000    0.38440   0.17980   0.48260   Biso      1.000     O          -0.688873           
         O43       1.0000    0.42490   0.29410   0.47130   Biso      1.000     O          -0.648973           
         O44       1.0000    0.39880   0.99240   0.74300   Biso      1.000     O          -0.648717           
         O45       1.0000    0.35090   0.04430   0.62810   Biso      1.000     O          -0.669777           
         O46       1.0000    0.15240   0.06790   0.50130   Biso      1.000     O          -0.672002           
         O47       1.0000    0.03380   0.01310   0.55430   Biso      1.000     O          -0.73285  
         O48       1.0000    0.84520   0.04370   0.88170   Biso      1.000     O          -0.6329   
         O49       1.0000    0.87890   0.00600   0.74340   Biso      1.000     O          -0.665975           
         O50       1.0000    0.56420   0.98260   0.82020   Biso      1.000     O          -0.688327           
         O51       1.0000    0.71900   0.97130   0.70590   Biso      1.000     O          -0.648096           
         O52       1.0000    0.39120   0.24300   0.00760   Biso      1.000     O          -0.647862           
         O53       1.0000    0.39520   0.12810   0.95570   Biso      1.000     O          -0.669607           
         O54       1.0000    0.22030   0.00130   0.93210   Biso      1.000     O          -0.673035           
         O55       1.0000    0.04690   0.05430   0.98690   Biso      1.000     O          -0.736304           
         O56       1.0000    0.88890   0.38170   0.95630   Biso      1.000     O          -0.633134           
         O57       1.0000    0.88490   0.24340   0.99400   Biso      1.000     O          -0.665535           
         O58       1.0000    0.86700   0.51740   0.67980   Biso      1.000     O          -0.690741           
         O59       1.0000    0.89620   0.52870   0.79410   Biso      1.000     O          -0.64897  
         O60       1.0000    0.14180   0.25700   0.49240   Biso      1.000     O          -0.648716           
         O61       1.0000    0.97900   0.37190   0.54430   Biso      1.000     O          -0.670026           
         O62       1.0000    0.65370   0.49870   0.56790   Biso      1.000     O          -0.669865           
         O63       1.0000    0.72690   0.11830   0.54370   Biso      1.000     O          -0.633849           
         O64       1.0000    0.37770   0.74340   0.49400   Biso      1.000     O          -0.666066 