
##########################################################################
#               Crystallographic Information Format file
#               Produced by PyCifRW module
#
#  This is a CIF file.  CIF has been adopted by the International
#  Union of Crystallography as the standard for data archiving and
#  transmission.
#
#  For information on this file format, follow the CIF links at
#  http://www.iucr.org
##########################################################################

data_image0

_cell_length_a                          9.6205
_cell_length_b                          11.564
_cell_length_c                          12.229
_cell_angle_alpha                       90
_cell_angle_beta                        99.04
_cell_angle_gamma                       90
_symmetry_space_group_name_H-M          'P 1'
_symmetry_int_tables_number             1
loop_
  _symmetry_equiv_pos_as_xyz
         'x, y, z' 
loop_
  _atom_site_label
  _atom_site_occupancy
  _atom_site_fract_x
  _atom_site_fract_y
  _atom_site_fract_z
  _atom_site_thermal_displace_type
  _atom_site_B_iso_or_equiv
  _atom_site_type_symbol
  _atom_site_charge
         C1        1.0000    0.00420   0.06620   0.49860   Biso      1.000     C          0.542484  
         C2        1.0000    0.56270   0.00010   0.54770   Biso      1.000     C          0.550315  
         C3        1.0000    0.30330   0.71400   0.70770   Biso      1.000     C          0.524288  
         C4        1.0000    0.20100   0.75710   0.78300   Biso      1.000     C          0.539043  
         C5        1.0000    0.70100   0.74290   0.28300   Biso      1.000     C          0.539031  
         C6        1.0000    0.50420   0.43380   0.99860   Biso      1.000     C          0.542674  
         C7        1.0000    0.80330   0.78600   0.20770   Biso      1.000     C          0.5242899999999999  
         C8        1.0000    0.06270   0.49990   0.04770   Biso      1.000     C          0.550519  
         C9        1.0000    0.79900   0.24290   0.21700   Biso      1.000     C          0.53904   
         C10       1.0000    0.99580   0.93380   0.50140   Biso      1.000     C          0.5424220000000001  
         C11       1.0000    0.69670   0.28600   0.29230   Biso      1.000     C          0.5242859999999999  
         C12       1.0000    0.43730   0.99990   0.45230   Biso      1.000     C          0.550285  
         C13       1.0000    0.29900   0.25710   0.71700   Biso      1.000     C          0.539033  
         C14       1.0000    0.49580   0.56620   0.00140   Biso      1.000     C          0.542696  
         C15       1.0000    0.19670   0.21400   0.79230   Biso      1.000     C          0.5242899999999999  
         C16       1.0000    0.93730   0.50010   0.95230   Biso      1.000     C          0.5505869999999999  
         Ho1       1.0000    0.78498   0.51238   0.16715   Biso      1.000     Ho          1.9543080000000002  
         Ho2       1.0000    0.21502   0.48762   0.83285   Biso      1.000     Ho          1.95432   
         Ho3       1.0000    0.71502   0.01238   0.33285   Biso      1.000     Ho          1.954376  
         Ho4       1.0000    0.28498   0.98762   0.66715   Biso      1.000     Ho          1.954388  
         O1        1.0000    0.31130   0.36460   0.70750   Biso      1.000     O          -0.518293           
         O2        1.0000    0.36440   0.18210   0.67070   Biso      1.000     O          -0.510523           
         O3        1.0000    0.39700   0.61220   0.93730   Biso      1.000     O          -0.516967           
         O4        1.0000    0.58780   0.61790   0.06710   Biso      1.000     O          -0.5309510000000001           
         O5        1.0000    0.17870   0.10660   0.79550   Biso      1.000     O          -0.5084529999999999           
         O6        1.0000    0.13820   0.28920   0.84370   Biso      1.000     O          -0.497504           
         O7        1.0000    0.81790   0.51130   0.97790   Biso      1.000     O          -0.5181640000000001           
         O8        1.0000    0.18870   0.86460   0.79250   Biso      1.000     O          -0.518263           
         O9        1.0000    0.13560   0.68210   0.82930   Biso      1.000     O          -0.5105689999999999           
         O10       1.0000    0.10300   0.11220   0.56270   Biso      1.000     O          -0.5169239999999999           
         O11       1.0000    0.91220   0.11790   0.43290   Biso      1.000     O          -0.530885           
         O12       1.0000    0.32130   0.60660   0.70450   Biso      1.000     O          -0.5084770000000001           
         O13       1.0000    0.36180   0.78920   0.65630   Biso      1.000     O          -0.497464           
         O14       1.0000    0.96740   0.49070   0.85650   Biso      1.000     O          -0.509953           
         O15       1.0000    0.46740   0.00930   0.35650   Biso      1.000     O          -0.50993  
         O16       1.0000    0.86180   0.71080   0.15630   Biso      1.000     O          -0.49750600000000006          
         O17       1.0000    0.63820   0.21080   0.34370   Biso      1.000     O          -0.497462           
         O18       1.0000    0.67870   0.39340   0.29550   Biso      1.000     O          -0.508482           
         O19       1.0000    0.08780   0.88210   0.56710   Biso      1.000     O          -0.53088  
         O20       1.0000    0.89700   0.88780   0.43730   Biso      1.000     O          -0.516915           
         O21       1.0000    0.86440   0.31790   0.17070   Biso      1.000     O          -0.510567           
         O22       1.0000    0.81130   0.13540   0.20750   Biso      1.000     O          -0.518265           
         O23       1.0000    0.03260   0.50930   0.14350   Biso      1.000     O          -0.509944           
         O24       1.0000    0.18210   0.48870   0.02210   Biso      1.000     O          -0.518157           
         O25       1.0000    0.68210   0.01130   0.52210   Biso      1.000     O          -0.518029           
         O26       1.0000    0.82130   0.89340   0.20450   Biso      1.000     O          -0.508456           
         O27       1.0000    0.41220   0.38210   0.93290   Biso      1.000     O          -0.53095  
         O28       1.0000    0.60300   0.38780   0.06270   Biso      1.000     O          -0.5169630000000001           
         O29       1.0000    0.63560   0.81790   0.32930   Biso      1.000     O          -0.510525           
         O30       1.0000    0.68870   0.63540   0.29250   Biso      1.000     O          -0.518293           
         O31       1.0000    0.31790   0.98870   0.47790   Biso      1.000     O          -0.518027           
         O32       1.0000    0.53260   0.99070   0.64350   Biso      1.000     O          -0.509934 