
##########################################################################
#               Crystallographic Information Format file
#               Produced by PyCifRW module
#
#  This is a CIF file.  CIF has been adopted by the International
#  Union of Crystallography as the standard for data archiving and
#  transmission.
#
#  For information on this file format, follow the CIF links at
#  http://www.iucr.org
##########################################################################

data_image0

_cell_length_a                          9.6515
_cell_length_b                          11.655
_cell_length_c                          12.264
_cell_angle_alpha                       90
_cell_angle_beta                        99.14
_cell_angle_gamma                       90
_symmetry_space_group_name_H-M          'P 1'
_symmetry_int_tables_number             1
loop_
  _symmetry_equiv_pos_as_xyz
         'x, y, z' 
loop_
  _atom_site_label
  _atom_site_occupancy
  _atom_site_fract_x
  _atom_site_fract_y
  _atom_site_fract_z
  _atom_site_thermal_displace_type
  _atom_site_B_iso_or_equiv
  _atom_site_type_symbol
  _atom_site_charge
         C1        1.0000    0.19790   0.28750   0.79370   Biso      1.000     C          0.524456  
         C2        1.0000    0.29930   0.24370   0.71650   Biso      1.000     C          0.541468  
         C3        1.0000    0.06250   0.99990   0.04810   Biso      1.000     C          0.544728  
         C4        1.0000    0.49550   0.93430   0.00040   Biso      1.000     C          0.540132  
         C5        1.0000    0.20070   0.74370   0.78350   Biso      1.000     C          0.541477  
         C6        1.0000    0.43750   0.49990   0.45190   Biso      1.000     C          0.545206  
         C7        1.0000    0.00450   0.43430   0.49960   Biso      1.000     C          0.540184  
         C8        1.0000    0.30210   0.78750   0.70630   Biso      1.000     C          0.524387  
         C9        1.0000    0.93750   0.00010   0.95190   Biso      1.000     C          0.544713  
         C10       1.0000    0.70070   0.75630   0.28350   Biso      1.000     C          0.541464  
         C11       1.0000    0.80210   0.71250   0.20630   Biso      1.000     C          0.524457  
         C12       1.0000    0.79930   0.25630   0.21650   Biso      1.000     C          0.541476  
         C13       1.0000    0.56250   0.50010   0.54810   Biso      1.000     C          0.545198  
         C14       1.0000    0.99550   0.56570   0.50040   Biso      1.000     C          0.540214  
         C15       1.0000    0.69790   0.21250   0.29370   Biso      1.000     C          0.524385  
         C16       1.0000    0.50450   0.06570   0.99960   Biso      1.000     C          0.540121  
         O1        1.0000    0.46710   0.48850   0.35690   Biso      1.000     O          -0.513271           
         O2        1.0000    0.91390   0.38180   0.43320   Biso      1.000     O          -0.532511           
         O3        1.0000    0.10220   0.38920   0.56490   Biso      1.000     O          -0.523035           
         O4        1.0000    0.31880   0.89430   0.70210   Biso      1.000     O          -0.510091           
         O5        1.0000    0.36140   0.71310   0.65630   Biso      1.000     O          -0.492836           
         O6        1.0000    0.31760   0.51140   0.47800   Biso      1.000     O          -0.516655           
         O7        1.0000    0.13480   0.81820   0.82850   Biso      1.000     O          -0.509968           
         O8        1.0000    0.53290   0.51150   0.64310   Biso      1.000     O          -0.513265           
         O9        1.0000    0.13860   0.21310   0.84370   Biso      1.000     O          -0.493227           
         O10       1.0000    0.18120   0.39430   0.79790   Biso      1.000     O          -0.509326           
         O11       1.0000    0.39780   0.88920   0.93510   Biso      1.000     O          -0.522487           
         O12       1.0000    0.69110   0.86180   0.29370   Biso      1.000     O          -0.512659           
         O13       1.0000    0.58610   0.88180   0.06680   Biso      1.000     O          -0.53129  
         O14       1.0000    0.18240   0.01140   0.02200   Biso      1.000     O          -0.520459           
         O15       1.0000    0.03290   0.98850   0.14310   Biso      1.000     O          -0.509146           
         O16       1.0000    0.19110   0.63820   0.79370   Biso      1.000     O          -0.511632           
         O17       1.0000    0.63480   0.68180   0.32850   Biso      1.000     O          -0.509832           
         O18       1.0000    0.30890   0.13820   0.70630   Biso      1.000     O          -0.512666           
         O19       1.0000    0.81760   0.98860   0.97800   Biso      1.000     O          -0.520463           
         O20       1.0000    0.63860   0.28690   0.34370   Biso      1.000     O          -0.492812           
         O21       1.0000    0.68120   0.10570   0.29790   Biso      1.000     O          -0.510086           
         O22       1.0000    0.89780   0.61080   0.43510   Biso      1.000     O          -0.523044           
         O23       1.0000    0.08610   0.61820   0.56680   Biso      1.000     O          -0.532509           
         O24       1.0000    0.96710   0.01150   0.85690   Biso      1.000     O          -0.509139           
         O25       1.0000    0.36520   0.31820   0.67150   Biso      1.000     O          -0.509855           
         O26       1.0000    0.68240   0.48860   0.52200   Biso      1.000     O          -0.51666  
         O27       1.0000    0.80890   0.36180   0.20630   Biso      1.000     O          -0.511627           
         O28       1.0000    0.86140   0.78690   0.15630   Biso      1.000     O          -0.493204           
         O29       1.0000    0.81880   0.60570   0.20210   Biso      1.000     O          -0.509321           
         O30       1.0000    0.60220   0.11080   0.06490   Biso      1.000     O          -0.522492           
         O31       1.0000    0.41390   0.11820   0.93320   Biso      1.000     O          -0.531284           
         O32       1.0000    0.86520   0.18180   0.17150   Biso      1.000     O          -0.509946           
         Tb1       1.0000    0.21437   0.01386   0.83196   Biso      1.000     Tb          1.95846   
         Tb2       1.0000    0.28563   0.51386   0.66804   Biso      1.000     Tb          1.957922  
         Tb3       1.0000    0.78563   0.98614   0.16804   Biso      1.000     Tb          1.958444  
         Tb4       1.0000    0.71437   0.48614   0.33196   Biso      1.000     Tb          1.957906 