
##########################################################################
#               Crystallographic Information Format file
#               Produced by PyCifRW module
#
#  This is a CIF file.  CIF has been adopted by the International
#  Union of Crystallography as the standard for data archiving and
#  transmission.
#
#  For information on this file format, follow the CIF links at
#  http://www.iucr.org
##########################################################################

data_image0

_cell_length_a                          9.6315
_cell_length_b                          11.613
_cell_length_c                          12.217
_cell_angle_alpha                       90
_cell_angle_beta                        99.13
_cell_angle_gamma                       90
_symmetry_space_group_name_H-M          'P 1'
_symmetry_int_tables_number             1
loop_
  _symmetry_equiv_pos_as_xyz
         'x, y, z' 
loop_
  _atom_site_label
  _atom_site_occupancy
  _atom_site_fract_x
  _atom_site_fract_y
  _atom_site_fract_z
  _atom_site_thermal_displace_type
  _atom_site_B_iso_or_equiv
  _atom_site_type_symbol
  _atom_site_charge
         C1        1.0000    0.30290   0.28710   0.70690   Biso      1.000     C          0.525581  
         C2        1.0000    0.56300   0.00010   0.54780   Biso      1.000     C          0.551533  
         C3        1.0000    0.00440   0.93360   0.49890   Biso      1.000     C          0.543303  
         C4        1.0000    0.20040   0.24300   0.78300   Biso      1.000     C          0.543937  
         C5        1.0000    0.70040   0.25700   0.28300   Biso      1.000     C          0.543773  
         C6        1.0000    0.80290   0.21290   0.20690   Biso      1.000     C          0.525631  
         C7        1.0000    0.50440   0.56640   0.99890   Biso      1.000     C          0.543343  
         C8        1.0000    0.06300   0.49990   0.04780   Biso      1.000     C          0.550876  
         C9        1.0000    0.79960   0.75700   0.21700   Biso      1.000     C          0.543966  
         C10       1.0000    0.69710   0.71290   0.29310   Biso      1.000     C          0.525592  
         C11       1.0000    0.99560   0.06640   0.50110   Biso      1.000     C          0.543336  
         C12       1.0000    0.43700   0.99990   0.45220   Biso      1.000     C          0.551547  
         C13       1.0000    0.29960   0.74300   0.71700   Biso      1.000     C          0.543771  
         C14       1.0000    0.19710   0.78710   0.79310   Biso      1.000     C          0.525637  
         C15       1.0000    0.49560   0.43360   0.00110   Biso      1.000     C          0.543329  
         C16       1.0000    0.93700   0.50010   0.95220   Biso      1.000     C          0.550872  
         Dy1       1.0000    0.78530   0.48689   0.16760   Biso      1.000     Dy          1.95974   
         Dy2       1.0000    0.21470   0.51311   0.83240   Biso      1.000     Dy          1.959744  
         Dy3       1.0000    0.71470   0.98689   0.33240   Biso      1.000     Dy          1.958875  
         Dy4       1.0000    0.28530   0.01312   0.66760   Biso      1.000     Dy          1.95881   
         O1        1.0000    0.30990   0.63680   0.70720   Biso      1.000     O          -0.51876  
         O2        1.0000    0.36480   0.81820   0.67120   Biso      1.000     O          -0.512968           
         O3        1.0000    0.13870   0.71220   0.84400   Biso      1.000     O          -0.496441           
         O4        1.0000    0.17970   0.89380   0.79640   Biso      1.000     O          -0.51185  
         O5        1.0000    0.39730   0.38850   0.93600   Biso      1.000     O          -0.519172           
         O6        1.0000    0.58680   0.38200   0.06720   Biso      1.000     O          -0.527748           
         O7        1.0000    0.96720   0.51030   0.85660   Biso      1.000     O          -0.509153           
         O8        1.0000    0.19010   0.13680   0.79280   Biso      1.000     O          -0.517247           
         O9        1.0000    0.13520   0.31820   0.82880   Biso      1.000     O          -0.513429           
         O10       1.0000    0.36130   0.21220   0.65600   Biso      1.000     O          -0.496217           
         O11       1.0000    0.32030   0.39380   0.70360   Biso      1.000     O          -0.512222           
         O12       1.0000    0.10270   0.88850   0.56400   Biso      1.000     O          -0.518894           
         O13       1.0000    0.91320   0.88200   0.43280   Biso      1.000     O          -0.529691           
         O14       1.0000    0.81780   0.48840   0.97770   Biso      1.000     O          -0.526755           
         O15       1.0000    0.31780   0.01160   0.47770   Biso      1.000     O          -0.521368           
         O16       1.0000    0.41320   0.61800   0.93280   Biso      1.000     O          -0.527749           
         O17       1.0000    0.08680   0.11800   0.56720   Biso      1.000     O          -0.529714           
         O18       1.0000    0.89730   0.11150   0.43600   Biso      1.000     O          -0.51891  
         O19       1.0000    0.67970   0.60620   0.29640   Biso      1.000     O          -0.512211           
         O20       1.0000    0.63870   0.78780   0.34400   Biso      1.000     O          -0.496215           
         O21       1.0000    0.86480   0.68180   0.17120   Biso      1.000     O          -0.513423           
         O22       1.0000    0.80990   0.86320   0.20720   Biso      1.000     O          -0.517291           
         O23       1.0000    0.18220   0.51160   0.02230   Biso      1.000     O          -0.526755           
         O24       1.0000    0.03280   0.48970   0.14340   Biso      1.000     O          -0.509156           
         O25       1.0000    0.53280   0.01030   0.64340   Biso      1.000     O          -0.514628           
         O26       1.0000    0.60270   0.61150   0.06400   Biso      1.000     O          -0.519178           
         O27       1.0000    0.82030   0.10620   0.20360   Biso      1.000     O          -0.511858           
         O28       1.0000    0.86130   0.28780   0.15600   Biso      1.000     O          -0.496441           
         O29       1.0000    0.63520   0.18180   0.32880   Biso      1.000     O          -0.51299  
         O30       1.0000    0.69010   0.36320   0.29280   Biso      1.000     O          -0.518759           
         O31       1.0000    0.46720   0.98970   0.35660   Biso      1.000     O          -0.514642           
         O32       1.0000    0.68220   0.98840   0.52230   Biso      1.000     O          -0.521362 