
##########################################################################
#               Crystallographic Information Format file
#               Produced by PyCifRW module
#
#  This is a CIF file.  CIF has been adopted by the International
#  Union of Crystallography as the standard for data archiving and
#  transmission.
#
#  For information on this file format, follow the CIF links at
#  http://www.iucr.org
##########################################################################

data_image0

_cell_length_a                          9.659
_cell_length_b                          11.718
_cell_length_c                          12.281
_cell_angle_alpha                       90
_cell_angle_beta                        99.2
_cell_angle_gamma                       90
_symmetry_space_group_name_H-M          'P 1'
_symmetry_int_tables_number             1
loop_
  _symmetry_equiv_pos_as_xyz
         'x, y, z' 
loop_
  _atom_site_label
  _atom_site_occupancy
  _atom_site_fract_x
  _atom_site_fract_y
  _atom_site_fract_z
  _atom_site_thermal_displace_type
  _atom_site_B_iso_or_equiv
  _atom_site_type_symbol
  _atom_site_charge
         C1        1.0000    0.20060   0.24540   0.28320   Biso      1.000     C          0.5381729999999999  
         C2        1.0000    0.99470   0.06600   0.00010   Biso      1.000     C          0.541787  
         C3        1.0000    0.56290   0.00050   0.04750   Biso      1.000     C          0.54777   
         C4        1.0000    0.30140   0.28920   0.20620   Biso      1.000     C          0.524668  
         C5        1.0000    0.80140   0.21080   0.70620   Biso      1.000     C          0.523763  
         C6        1.0000    0.70060   0.25460   0.78320   Biso      1.000     C          0.536503  
         C7        1.0000    0.06290   0.49950   0.54750   Biso      1.000     C          0.547452  
         C8        1.0000    0.49470   0.43400   0.50010   Biso      1.000     C          0.541894  
         C9        1.0000    0.69860   0.71080   0.79380   Biso      1.000     C          0.52417   
         C10       1.0000    0.79940   0.75460   0.71680   Biso      1.000     C          0.537561  
         C11       1.0000    0.43710   0.99950   0.95250   Biso      1.000     C          0.54756   
         C12       1.0000    0.00530   0.93400   0.99990   Biso      1.000     C          0.542029  
         C13       1.0000    0.19860   0.78920   0.29380   Biso      1.000     C          0.52457   
         C14       1.0000    0.29940   0.74540   0.21680   Biso      1.000     C          0.537924  
         C15       1.0000    0.93710   0.50050   0.45250   Biso      1.000     C          0.547569  
         C16       1.0000    0.50530   0.56600   0.49990   Biso      1.000     C          0.541844  
         Gd1       1.0000    0.78595   0.48520   0.66865   Biso      1.000     Gd          1.940911  
         Gd2       1.0000    0.21405   0.51480   0.33135   Biso      1.000     Gd          1.940708  
         Gd3       1.0000    0.71405   0.98520   0.83135   Biso      1.000     Gd          1.940712  
         Gd4       1.0000    0.28595   0.01480   0.16865   Biso      1.000     Gd          1.939831  
         O1        1.0000    0.13970   0.71430   0.34390   Biso      1.000     O          -0.49598000000000003          
         O2        1.0000    0.18270   0.89470   0.29900   Biso      1.000     O          -0.509392           
         O3        1.0000    0.30840   0.63950   0.20600   Biso      1.000     O          -0.522981           
         O4        1.0000    0.36550   0.81910   0.17230   Biso      1.000     O          -0.502578           
         O5        1.0000    0.96660   0.51250   0.35710   Biso      1.000     O          -0.5055569999999999           
         O6        1.0000    0.81860   0.48820   0.47750   Biso      1.000     O          -0.5222720000000001           
         O7        1.0000    0.41550   0.61800   0.43370   Biso      1.000     O          -0.51655  
         O8        1.0000    0.36030   0.21430   0.15610   Biso      1.000     O          -0.49598000000000003          
         O9        1.0000    0.31730   0.39470   0.20100   Biso      1.000     O          -0.509037           
         O10       1.0000    0.19160   0.13950   0.29400   Biso      1.000     O          -0.522253           
         O11       1.0000    0.13450   0.31910   0.32770   Biso      1.000     O          -0.502594           
         O12       1.0000    0.53340   0.01250   0.14290   Biso      1.000     O          -0.508965           
         O13       1.0000    0.68140   0.98820   0.02250   Biso      1.000     O          -0.517529           
         O14       1.0000    0.60200   0.61000   0.56580   Biso      1.000     O          -0.517508           
         O15       1.0000    0.10200   0.89000   0.06580   Biso      1.000     O          -0.5170680000000001           
         O16       1.0000    0.18140   0.51180   0.52250   Biso      1.000     O          -0.523237           
         O17       1.0000    0.31860   0.01180   0.97750   Biso      1.000     O          -0.518759           
         O18       1.0000    0.46660   0.98750   0.85710   Biso      1.000     O          -0.5074569999999999           
         O19       1.0000    0.86550   0.68090   0.67230   Biso      1.000     O          -0.511772           
         O20       1.0000    0.80840   0.86050   0.70600   Biso      1.000     O          -0.514868           
         O21       1.0000    0.68270   0.60530   0.79900   Biso      1.000     O          -0.501356           
         O22       1.0000    0.63970   0.78570   0.84390   Biso      1.000     O          -0.505087           
         O23       1.0000    0.39800   0.39000   0.43420   Biso      1.000     O          -0.517521           
         O24       1.0000    0.58450   0.38200   0.56630   Biso      1.000     O          -0.51658  
         O25       1.0000    0.08450   0.11800   0.06630   Biso      1.000     O          -0.516652           
         O26       1.0000    0.03340   0.48750   0.64290   Biso      1.000     O          -0.503831           
         O27       1.0000    0.63450   0.18090   0.82770   Biso      1.000     O          -0.514653           
         O28       1.0000    0.69160   0.36050   0.79400   Biso      1.000     O          -0.5111979999999999           
         O29       1.0000    0.81730   0.10530   0.70100   Biso      1.000     O          -0.497795           
         O30       1.0000    0.86030   0.28570   0.65610   Biso      1.000     O          -0.507165           
         O31       1.0000    0.91550   0.88200   0.93370   Biso      1.000     O          -0.5161640000000001           
         O32       1.0000    0.89800   0.11000   0.93420   Biso      1.000     O          -0.5170600000000001 