
##########################################################################
#               Crystallographic Information Format file
#               Produced by PyCifRW module
#
#  This is a CIF file.  CIF has been adopted by the International
#  Union of Crystallography as the standard for data archiving and
#  transmission.
#
#  For information on this file format, follow the CIF links at
#  http://www.iucr.org
##########################################################################

data_image0

_cell_length_a                          8.91
_cell_length_b                          12.007
_cell_length_c                          12.526
_cell_angle_alpha                       77.708
_cell_angle_beta                        76.629
_cell_angle_gamma                       76.378
_symmetry_space_group_name_H-M          'P 1'
_symmetry_int_tables_number             1
loop_
  _symmetry_equiv_pos_as_xyz
         'x, y, z' 
loop_
  _atom_site_label
  _atom_site_occupancy
  _atom_site_fract_x
  _atom_site_fract_y
  _atom_site_fract_z
  _atom_site_thermal_displace_type
  _atom_site_B_iso_or_equiv
  _atom_site_type_symbol
  _atom_site_charge
         C1        1.0000    0.08700   0.41030   0.56540   Biso      1.000     C          0.01644   
         C2        1.0000    0.08310   0.39950   0.45690   Biso      1.000     C          0.030352999999999998          
         C3        1.0000    0.99820   0.48130   0.27190   Biso      1.000     C          -0.1782   
         C4        1.0000    0.10830   0.59460   0.08980   Biso      1.000     C          0.101877  
         C5        1.0000    0.32690   0.59670   0.12550   Biso      1.000     C          0.13743699999999998           
         C6        1.0000    0.81300   0.68450   0.36550   Biso      1.000     C          -0.18202100000000002          
         C7        1.0000    0.88070   0.82780   0.19420   Biso      1.000     C          0.074615  
         C8        1.0000    0.07230   0.87240   0.23060   Biso      1.000     C          0.159696  
         C9        1.0000    0.16980   0.28830   0.41310   Biso      1.000     C          -0.176535           
         C10       1.0000    0.55950   0.32180   0.31880   Biso      1.000     C          0.146812  
         C11       1.0000    0.38530   0.89740   0.97180   Biso      1.000     C          0.618877  
         C12       1.0000    0.42810   0.99960   0.99650   Biso      1.000     C          -0.178278           
         C13       1.0000    0.91300   0.58970   0.43460   Biso      1.000     C          0.01644   
         C14       1.0000    0.00170   0.50990   0.60920   Biso      1.000     C          0.015227000000000001          
         C15       1.0000    0.00180   0.51870   0.72810   Biso      1.000     C          -0.178201           
         C16       1.0000    0.89170   0.40540   0.91020   Biso      1.000     C          0.101876  
         C17       1.0000    0.67310   0.40330   0.87450   Biso      1.000     C          0.137439  
         C18       1.0000    0.18700   0.31550   0.63450   Biso      1.000     C          -0.18202100000000002          
         C19       1.0000    0.11930   0.17220   0.80580   Biso      1.000     C          0.074615  
         C20       1.0000    0.92770   0.12760   0.76940   Biso      1.000     C          0.159696  
         C21       1.0000    0.83020   0.71170   0.58690   Biso      1.000     C          -0.176534           
         C22       1.0000    0.60580   0.72420   0.75130   Biso      1.000     C          0.11206300000000001           
         C23       1.0000    0.44050   0.67820   0.68120   Biso      1.000     C          0.146811  
         C24       1.0000    0.61470   0.10260   0.02820   Biso      1.000     C          0.618873  
         C25       1.0000    0.57190   0.00040   0.00350   Biso      1.000     C          -0.178228           
         C26       1.0000    0.91690   0.60050   0.54310   Biso      1.000     C          0.030352999999999998          
         C27       1.0000    0.99830   0.49010   0.39080   Biso      1.000     C          0.015227000000000001          
         C28       1.0000    0.39420   0.27580   0.24870   Biso      1.000     C          0.112062  
         H1        1.0000    0.64960   0.93480   0.99250   Biso      1.000     H          0.14136700000000002           
         H2        1.0000    0.02040   0.40010   0.26410   Biso      1.000     H          0.137819  
         H3        1.0000    0.34710   0.66150   0.67340   Biso      1.000     H          0.11393099999999999           
         H4        1.0000    0.02320   0.60470   0.05510   Biso      1.000     H          0.122919  
         H5        1.0000    0.42720   0.61120   0.11780   Biso      1.000     H          0.115272  
         H6        1.0000    0.76630   0.64930   0.32170   Biso      1.000     H          0.133395  
         H7        1.0000    0.72840   0.72640   0.41480   Biso      1.000     H          0.125814  
         H8        1.0000    0.80110   0.82350   0.15940   Biso      1.000     H          0.123918  
         H9        1.0000    0.15720   0.90740   0.22450   Biso      1.000     H          0.11932899999999999           
         H10       1.0000    0.10990   0.27090   0.36520   Biso      1.000     H          0.14921800000000002           
         H11       1.0000    0.17650   0.22460   0.47530   Biso      1.000     H          0.13646   
         H12       1.0000    0.34440   0.25420   0.20090   Biso      1.000     H          0.133028  
         H13       1.0000    0.65290   0.33850   0.32660   Biso      1.000     H          0.11393099999999999           
         H14       1.0000    0.89470   0.51600   0.25490   Biso      1.000     H          0.131304  
         H15       1.0000    0.97960   0.59990   0.73590   Biso      1.000     H          0.137819  
         H16       1.0000    0.35040   0.06520   0.00750   Biso      1.000     H          0.14137   
         H17       1.0000    0.65560   0.74580   0.79910   Biso      1.000     H          0.133028  
         H18       1.0000    0.89010   0.72910   0.63480   Biso      1.000     H          0.14921900000000002           
         H19       1.0000    0.84280   0.09260   0.77550   Biso      1.000     H          0.11932999999999999           
         H20       1.0000    0.19890   0.17650   0.84060   Biso      1.000     H          0.123919  
         H21       1.0000    0.27160   0.27360   0.58520   Biso      1.000     H          0.125815  
         H22       1.0000    0.82350   0.77540   0.52470   Biso      1.000     H          0.13646   
         H23       1.0000    0.57280   0.38880   0.88220   Biso      1.000     H          0.115271  
         H24       1.0000    0.97680   0.39530   0.94490   Biso      1.000     H          0.122919  
         H25       1.0000    0.10530   0.48400   0.74510   Biso      1.000     H          0.131305  
         H26       1.0000    0.23370   0.35070   0.67830   Biso      1.000     H          0.133393  
         N1        1.0000    0.43370   0.32620   0.39720   Biso      1.000     N          -0.286539           
         N2        1.0000    0.67140   0.70380   0.64950   Biso      1.000     N          0.18954400000000002           
         N3        1.0000    0.45820   0.70930   0.77470   Biso      1.000     N          -0.304696           
         N4        1.0000    0.97160   0.20570   0.68270   Biso      1.000     N          -0.283798           
         N5        1.0000    0.09440   0.23340   0.70920   Biso      1.000     N          0.183306  
         N6        1.0000    0.01590   0.10370   0.84700   Biso      1.000     N          -0.282499           
         N7        1.0000    0.74360   0.46020   0.78380   Biso      1.000     N          -0.261549           
         N8        1.0000    0.56630   0.67380   0.60280   Biso      1.000     N          -0.286527           
         N9        1.0000    0.88390   0.45970   0.80770   Biso      1.000     N          0.19759300000000002           
         N10       1.0000    0.75800   0.36720   0.95640   Biso      1.000     N          -0.300791           
         N11       1.0000    0.32860   0.29620   0.35050   Biso      1.000     N          0.189555  
         N12       1.0000    0.11610   0.54030   0.19230   Biso      1.000     N          0.197577  
         N13       1.0000    0.02840   0.79430   0.31730   Biso      1.000     N          -0.28379899999999997          
         N14       1.0000    0.90560   0.76660   0.29080   Biso      1.000     N          0.183306  
         N15       1.0000    0.98410   0.89630   0.15300   Biso      1.000     N          -0.282499           
         N16       1.0000    0.25640   0.53980   0.21620   Biso      1.000     N          -0.261533           
         N17       1.0000    0.24200   0.63280   0.04360   Biso      1.000     N          -0.300791           
         N18       1.0000    0.54180   0.29070   0.22530   Biso      1.000     N          -0.304696           
         O1        1.0000    0.47860   0.80280   0.97130   Biso      1.000     O          -0.529281           
         O2        1.0000    0.88170   0.23930   0.17970   Biso      1.000     O          -0.706529           
         O3        1.0000    0.12170   0.13140   0.23370   Biso      1.000     O          -0.707994           
         O4        1.0000    0.12510   0.30110   0.09550   Biso      1.000     O          -0.722956           
         O5        1.0000    0.07320   0.13140   0.05260   Biso      1.000     O          -0.721503           
         O6        1.0000    0.24860   0.90860   0.94740   Biso      1.000     O          -0.577518           
         O7        1.0000    0.87830   0.86860   0.76630   Biso      1.000     O          -0.707994           
         O8        1.0000    0.52140   0.19720   0.02870   Biso      1.000     O          -0.529281           
         O9        1.0000    0.92680   0.86860   0.94740   Biso      1.000     O          -0.721503           
         O10       1.0000    0.11830   0.76070   0.82030   Biso      1.000     O          -0.7065279999999999           
         O11       1.0000    0.75140   0.09140   0.05260   Biso      1.000     O          -0.577519           
         O12       1.0000    0.87490   0.69890   0.90450   Biso      1.000     O          -0.722956           
         S1        1.0000    0.05323   0.20020   0.14001   Biso      1.000     S          1.476803  
         S2        1.0000    0.94677   0.79980   0.85999   Biso      1.000     S          1.476804  
         Zn1       1.0000    0.00000   0.00000   0.00000   Biso      1.000     Zn          0.9236709999999999  
         Zn2       1.0000    0.71362   0.25325   0.09607   Biso      1.000     Zn          0.794399  
         Zn3       1.0000    0.28638   0.74675   0.90393   Biso      1.000     Zn          0.7943979999999999 