
##########################################################################
#               Crystallographic Information Format file
#               Produced by PyCifRW module
#
#  This is a CIF file.  CIF has been adopted by the International
#  Union of Crystallography as the standard for data archiving and
#  transmission.
#
#  For information on this file format, follow the CIF links at
#  http://www.iucr.org
##########################################################################

data_image0

_cell_length_a                          7.9332
_cell_length_b                          9.901
_cell_length_c                          17.2163
_cell_angle_alpha                       104.07
_cell_angle_beta                        90
_cell_angle_gamma                       113.617
_symmetry_space_group_name_H-M          'P 1'
_symmetry_int_tables_number             1
loop_
  _symmetry_equiv_pos_as_xyz
         'x, y, z' 
loop_
  _atom_site_label
  _atom_site_occupancy
  _atom_site_fract_x
  _atom_site_fract_y
  _atom_site_fract_z
  _atom_site_thermal_displace_type
  _atom_site_B_iso_or_equiv
  _atom_site_type_symbol
  _atom_site_charge
         C1        1.0000    0.12230   0.40780   0.36550   Biso      1.000     C          0.028792  
         C2        1.0000    0.28370   0.18740   0.77940   Biso      1.000     C          0.28431799999999996           
         C3        1.0000    0.35310   0.24220   0.86730   Biso      1.000     C          0.032001  
         C4        1.0000    0.25400   0.15460   0.91770   Biso      1.000     C          -0.13429100000000002          
         C5        1.0000    0.31700   0.19960   0.99830   Biso      1.000     C          -0.078938           
         C6        1.0000    0.47740   0.32020   0.02890   Biso      1.000     C          -0.032619           
         C7        1.0000    0.57910   0.40960   0.97780   Biso      1.000     C          -0.087021           
         C8        1.0000    0.55410   0.36180   0.11690   Biso      1.000     C          0.6466109999999999  
         C9        1.0000    0.08180   0.34080   0.27840   Biso      1.000     C          0.286039  
         C10       1.0000    0.11500   0.31620   0.41560   Biso      1.000     C          -0.12386199999999999          
         C11       1.0000    0.14440   0.37680   0.49890   Biso      1.000     C          -0.07667  
         C12       1.0000    0.60720   0.40640   0.37660   Biso      1.000     C          0.6358560000000001  
         C13       1.0000    0.18010   0.52800   0.53120   Biso      1.000     C          -0.033408999999999994         
         C14       1.0000    0.15940   0.56280   0.39940   Biso      1.000     C          -0.134392           
         C15       1.0000    0.20080   0.59360   0.62340   Biso      1.000     C          0.636551  
         C16       1.0000    0.09630   0.81260   0.22060   Biso      1.000     C          0.284844  
         C17       1.0000    0.11090   0.75780   0.13270   Biso      1.000     C          0.032457  
         C18       1.0000    0.09940   0.84540   0.08230   Biso      1.000     C          -0.13613599999999998          
         C19       1.0000    0.11740   0.80040   0.00170   Biso      1.000     C          -0.079122           
         C20       1.0000    0.15720   0.67980   0.97110   Biso      1.000     C          -0.033054           
         C21       1.0000    0.16950   0.59040   0.02220   Biso      1.000     C          -0.085967           
         C22       1.0000    0.14850   0.63420   0.10200   Biso      1.000     C          -0.123707           
         C23       1.0000    0.19230   0.63820   0.88310   Biso      1.000     C          0.6479199999999999  
         C24       1.0000    0.18070   0.61780   0.48220   Biso      1.000     C          -0.08923500000000001          
         C25       1.0000    0.59660   0.43720   0.60060   Biso      1.000     C          -0.133285           
         C26       1.0000    0.51430   0.36580   0.89800   Biso      1.000     C          -0.123378           
         C27       1.0000    0.65210   0.47200   0.46880   Biso      1.000     C          -0.031955000000000004         
         C28       1.0000    0.76760   0.62320   0.50110   Biso      1.000     C          -0.079224           
         C29       1.0000    0.79880   0.68380   0.58440   Biso      1.000     C          -0.122026           
         C30       1.0000    0.71450   0.59220   0.63450   Biso      1.000     C          0.026255  
         C31       1.0000    0.74100   0.65920   0.72160   Biso      1.000     C          0.28780900000000004           
         C32       1.0000    0.56290   0.38220   0.51780   Biso      1.000     C          -0.08845599999999999          
         H1        1.0000    0.87670   0.78620   0.60630   Biso      1.000     H          0.10948599999999999           
         H2        1.0000    0.47790   0.28220   0.49500   Biso      1.000     H          0.121957  
         H3        1.0000    0.54250   0.37280   0.63350   Biso      1.000     H          0.11009100000000001           
         H4        1.0000    0.14650   0.06660   0.89720   Biso      1.000     H          0.10531900000000001           
         H5        1.0000    0.24640   0.14480   0.03250   Biso      1.000     H          0.109181  
         H6        1.0000    0.68780   0.49640   0.99820   Biso      1.000     H          0.122998  
         H7        1.0000    0.58240   0.42200   0.86390   Biso      1.000     H          0.108575  
         H8        1.0000    0.09050   0.21380   0.39370   Biso      1.000     H          0.10928800000000001           
         H9        1.0000    0.82490   0.68500   0.46740   Biso      1.000     H          0.11811400000000001           
         H10       1.0000    0.19570   0.71780   0.50500   Biso      1.000     H          0.122028  
         H11       1.0000    0.16970   0.62720   0.36650   Biso      1.000     H          0.11108900000000001           
         H12       1.0000    0.07990   0.93340   0.10280   Biso      1.000     H          0.10623800000000001           
         H13       1.0000    0.10160   0.85520   0.96750   Biso      1.000     H          0.10904100000000001           
         H14       1.0000    0.19140   0.50360   0.00180   Biso      1.000     H          0.122885  
         H15       1.0000    0.16040   0.57800   0.13610   Biso      1.000     H          0.108846  
         H16       1.0000    0.13990   0.31500   0.53260   Biso      1.000     H          0.11733199999999999           
         N1        1.0000    0.11230   0.95940   0.33790   Biso      1.000     N          -0.046612           
         N2        1.0000    0.02000   0.82060   0.33960   Biso      1.000     N          -0.050933           
         N3        1.0000    0.00550   0.72260   0.26560   Biso      1.000     N          -0.269203           
         N4        1.0000    0.13790   0.24040   0.23490   Biso      1.000     N          -0.288745           
         N5        1.0000    0.05750   0.20000   0.15780   Biso      1.000     N          -0.057276           
         N6        1.0000    0.95710   0.27600   0.15570   Biso      1.000     N          -0.070997           
         N7        1.0000    0.97020   0.36560   0.23060   Biso      1.000     N          -0.29793800000000004          
         N8        1.0000    0.20860   0.04000   0.73840   Biso      1.000     N          -0.313609           
         N9        1.0000    0.15290   0.04060   0.66210   Biso      1.000     N          -0.04562  
         N10       1.0000    0.85750   0.80000   0.84220   Biso      1.000     N          -0.055314           
         N11       1.0000    0.28290   0.27740   0.73440   Biso      1.000     N          -0.27065500000000003          
         N12       1.0000    0.89750   0.75960   0.76510   Biso      1.000     N          -0.290923           
         N13       1.0000    0.68110   0.72400   0.84430   Biso      1.000     N          -0.072429           
         N14       1.0000    0.60460   0.63440   0.76940   Biso      1.000     N          -0.298264           
         N15       1.0000    0.16860   0.96000   0.26160   Biso      1.000     N          -0.31343699999999997          
         N16       1.0000    0.19940   0.17940   0.66040   Biso      1.000     N          -0.05057  
         O1        1.0000    0.20360   0.50280   0.66380   Biso      1.000     O          -0.583102           
         O2        1.0000    0.20990   0.71920   0.64840   Biso      1.000     O          -0.511441           
         O3        1.0000    0.70230   0.46920   0.14110   Biso      1.000     O          -0.520609           
         O4        1.0000    0.46450   0.27220   0.15470   Biso      1.000     O          -0.603482           
         O5        1.0000    0.70080   0.49720   0.33620   Biso      1.000     O          -0.58236  
         O6        1.0000    0.23310   0.53080   0.85890   Biso      1.000     O          -0.521192           
         O7        1.0000    0.19230   0.72780   0.84530   Biso      1.000     O          -0.604584           
         O8        1.0000    0.49070   0.28080   0.35160   Biso      1.000     O          -0.511834           
         Zn1       1.0000    0.83279   0.49908   0.24340   Biso      1.000     Zn          0.8108770000000001  
         Zn2       1.0000    0.35417   0.16732   0.24428   Biso      1.000     Zn          0.8963540000000001  
         Zn3       1.0000    0.33371   0.50092   0.75660   Biso      1.000     Zn          0.812214  
         Zn4       1.0000    0.18685   0.83268   0.75572   Biso      1.000     Zn          0.8965110000000001 