
##########################################################################
#               Crystallographic Information Format file
#               Produced by PyCifRW module
#
#  This is a CIF file.  CIF has been adopted by the International
#  Union of Crystallography as the standard for data archiving and
#  transmission.
#
#  For information on this file format, follow the CIF links at
#  http://www.iucr.org
##########################################################################

data_image0

_cell_length_a                          9.2706
_cell_length_b                          15.663
_cell_length_c                          22.31
_cell_angle_alpha                       102.25
_cell_angle_beta                        101.47
_cell_angle_gamma                       104.51
_symmetry_space_group_name_H-M          'P 1'
_symmetry_int_tables_number             1
loop_
  _symmetry_equiv_pos_as_xyz
         'x, y, z' 
loop_
  _atom_site_label
  _atom_site_occupancy
  _atom_site_fract_x
  _atom_site_fract_y
  _atom_site_fract_z
  _atom_site_thermal_displace_type
  _atom_site_B_iso_or_equiv
  _atom_site_type_symbol
  _atom_site_charge
         C1        1.0000    0.32660   0.23640   0.79150   Biso      1.000     C          -0.109164           
         C2        1.0000    0.16970   0.87640   0.72290   Biso      1.000     C          0.602975  
         C3        1.0000    0.50000   0.28870   0.98450   Biso      1.000     C          -0.208456           
         C4        1.0000    0.41210   0.34330   0.96530   Biso      1.000     C          0.181847  
         C5        1.0000    0.25140   0.15440   0.06960   Biso      1.000     C          0.595902  
         C6        1.0000    0.60510   0.42390   0.92360   Biso      1.000     C          -0.261708           
         C7        1.0000    0.70100   0.72710   0.78830   Biso      1.000     C          0.562877  
         C8        1.0000    0.75070   0.64310   0.77080   Biso      1.000     C          0.001169  
         C9        1.0000    0.67180   0.56330   0.78260   Biso      1.000     C          -0.2081   
         C10       1.0000    0.09040   0.87630   0.65850   Biso      1.000     C          -0.022661           
         C11       1.0000    0.71340   0.48580   0.76590   Biso      1.000     C          0.167025  
         C12       1.0000    0.91110   0.56340   0.72560   Biso      1.000     C          -0.204719           
         C13       1.0000    0.87040   0.64130   0.74170   Biso      1.000     C          -0.069165           
         C14       1.0000    0.98130   0.39500   0.69250   Biso      1.000     C          -0.255655           
         C15       1.0000    0.44700   0.25210   0.76250   Biso      1.000     C          -0.089213           
         C16       1.0000    0.31010   0.16740   0.82120   Biso      1.000     C          -0.083674           
         C17       1.0000    0.40760   0.11330   0.82080   Biso      1.000     C          -0.01663  
         C18       1.0000    0.52340   0.13000   0.79060   Biso      1.000     C          -0.080287           
         C19       1.0000    0.54520   0.19940   0.76060   Biso      1.000     C          -0.097424           
         C20       1.0000    0.83240   0.48360   0.73730   Biso      1.000     C          0.191157  
         C21       1.0000    0.92720   0.85150   0.63760   Biso      1.000     C          -0.075541           
         C22       1.0000    0.85430   0.85100   0.57880   Biso      1.000     C          -0.198689           
         C23       1.0000    0.93600   0.87410   0.53610   Biso      1.000     C          0.191805  
         C24       1.0000    0.22200   0.27220   0.01250   Biso      1.000     C          -0.206286           
         C25       1.0000    0.27170   0.33280   0.98060   Biso      1.000     C          0.174949  
         C26       1.0000    0.25770   0.59100   0.85040   Biso      1.000     C          -0.091215           
         C27       1.0000    0.22040   0.50440   0.86000   Biso      1.000     C          -0.09509  
         C28       1.0000    0.10410   0.47860   0.88900   Biso      1.000     C          -0.086993           
         C29       1.0000    0.02130   0.53680   0.90700   Biso      1.000     C          -0.099601           
         C30       1.0000    0.05860   0.62190   0.89620   Biso      1.000     C          -0.096353           
         C31       1.0000    0.17440   0.64890   0.86770   Biso      1.000     C          -0.016023           
         C32       1.0000    0.20650   0.74220   0.85470   Biso      1.000     C          0.596366  
         C33       1.0000    0.19000   0.00500   0.24190   Biso      1.000     C          0.612084  
         C34       1.0000    0.34710   0.94270   0.39160   Biso      1.000     C          -0.101838           
         C35       1.0000    0.33980   0.97890   0.33910   Biso      1.000     C          -0.097541           
         C36       1.0000    0.19930   0.96460   0.29800   Biso      1.000     C          -0.011676           
         C37       1.0000    0.06650   0.91510   0.30930   Biso      1.000     C          -0.08544  
         C38       1.0000    0.07400   0.88050   0.36200   Biso      1.000     C          -0.099659           
         C39       1.0000    0.21480   0.89280   0.40120   Biso      1.000     C          -0.07014  
         C40       1.0000    0.70940   0.84970   0.45300   Biso      1.000     C          -0.259255           
         C41       1.0000    0.17370   0.89900   0.61560   Biso      1.000     C          -0.2043   
         C42       1.0000    0.09350   0.89800   0.55590   Biso      1.000     C          0.172596  
         C43       1.0000    0.38890   0.03830   0.85380   Biso      1.000     C          0.599558  
         C44       1.0000    0.83030   0.12360   0.27710   Biso      1.000     C          0.602976  
         C45       1.0000    0.90960   0.12370   0.34150   Biso      1.000     C          -0.022658           
         C46       1.0000    0.07280   0.14850   0.36240   Biso      1.000     C          -0.075538           
         C47       1.0000    0.50000   0.71130   0.01550   Biso      1.000     C          -0.208457           
         C48       1.0000    0.58790   0.65670   0.03470   Biso      1.000     C          0.181847  
         C49       1.0000    0.74860   0.84560   0.93040   Biso      1.000     C          0.595905  
         C50       1.0000    0.39490   0.57610   0.07640   Biso      1.000     C          -0.261707           
         C51       1.0000    0.29900   0.27290   0.21170   Biso      1.000     C          0.562873  
         C52       1.0000    0.24930   0.35690   0.22920   Biso      1.000     C          0.001175  
         C53       1.0000    0.32820   0.43670   0.21740   Biso      1.000     C          -0.208103           
         C54       1.0000    0.28660   0.51420   0.23410   Biso      1.000     C          0.167025  
         C55       1.0000    0.16760   0.51640   0.26270   Biso      1.000     C          0.191159  
         C56       1.0000    0.08890   0.43660   0.27440   Biso      1.000     C          -0.204715           
         C57       1.0000    0.12960   0.35870   0.25830   Biso      1.000     C          -0.069162           
         C58       1.0000    0.01870   0.60500   0.30750   Biso      1.000     C          -0.255654           
         C59       1.0000    0.55300   0.74790   0.23750   Biso      1.000     C          -0.089213           
         C60       1.0000    0.67340   0.76360   0.20850   Biso      1.000     C          -0.109164           
         C61       1.0000    0.68990   0.83260   0.17880   Biso      1.000     C          -0.083675           
         C62       1.0000    0.59240   0.88670   0.17920   Biso      1.000     C          -0.016631           
         C63       1.0000    0.47660   0.87000   0.20940   Biso      1.000     C          -0.080287           
         C64       1.0000    0.45480   0.80060   0.23940   Biso      1.000     C          -0.097423           
         C65       1.0000    0.61110   0.96170   0.14620   Biso      1.000     C          0.599558  
         C66       1.0000    0.55150   0.77280   0.98190   Biso      1.000     C          -0.063627           
         C67       1.0000    0.30860   0.21780   0.03220   Biso      1.000     C          -0.00348  
         C68       1.0000    0.69140   0.78220   0.96780   Biso      1.000     C          -0.003486           
         C69       1.0000    0.72830   0.66720   0.01940   Biso      1.000     C          0.17493   
         C70       1.0000    0.14570   0.14900   0.42120   Biso      1.000     C          -0.198689           
         C71       1.0000    0.06400   0.12590   0.46390   Biso      1.000     C          0.191807  
         C72       1.0000    0.90650   0.10200   0.44410   Biso      1.000     C          0.172594  
         C73       1.0000    0.82630   0.10100   0.38440   Biso      1.000     C          -0.2043   
         C74       1.0000    0.29060   0.15030   0.54700   Biso      1.000     C          -0.259255           
         C75       1.0000    0.78520   0.10720   0.59880   Biso      1.000     C          -0.070162           
         C76       1.0000    0.92600   0.11950   0.63800   Biso      1.000     C          -0.099648           
         C77       1.0000    0.93350   0.08490   0.69070   Biso      1.000     C          -0.085445           
         C78       1.0000    0.80070   0.03540   0.70200   Biso      1.000     C          -0.011678           
         C79       1.0000    0.66020   0.02110   0.66090   Biso      1.000     C          -0.09754  
         C80       1.0000    0.65290   0.05730   0.60840   Biso      1.000     C          -0.101825           
         C81       1.0000    0.81000   0.99500   0.75810   Biso      1.000     C          0.612085  
         C82       1.0000    0.79350   0.25780   0.14530   Biso      1.000     C          0.596371  
         C83       1.0000    0.82560   0.35110   0.13230   Biso      1.000     C          -0.016032           
         C84       1.0000    0.94140   0.37810   0.10380   Biso      1.000     C          -0.096351           
         C85       1.0000    0.97870   0.46320   0.09300   Biso      1.000     C          -0.099601           
         C86       1.0000    0.89590   0.52140   0.11100   Biso      1.000     C          -0.086991           
         C87       1.0000    0.77960   0.49560   0.14000   Biso      1.000     C          -0.095087           
         C88       1.0000    0.74230   0.40900   0.14960   Biso      1.000     C          -0.091213           
         C89       1.0000    0.77800   0.72780   0.98750   Biso      1.000     C          -0.206265           
         C90       1.0000    0.44850   0.22720   0.01810   Biso      1.000     C          -0.063629           
         Eu1       1.0000    0.51438   0.86034   0.80213   Biso      1.000     Eu          1.354375  
         Eu2       1.0000    0.02951   0.91201   0.85658   Biso      1.000     Eu          1.407193  
         Eu3       1.0000    0.48562   0.13966   0.19787   Biso      1.000     Eu          1.354384  
         Eu4       1.0000    0.97049   0.08799   0.14342   Biso      1.000     Eu          1.40719   
         H1        1.0000    0.41110   0.90630   0.20960   Biso      1.000     H          0.120713  
         H2        1.0000    0.50940   0.19200   0.03110   Biso      1.000     H          0.129957  
         H3        1.0000    0.59420   0.29350   0.97480   Biso      1.000     H          0.14124   
         H4        1.0000    0.68240   0.44520   0.96370   Biso      1.000     H          0.134263  
         H5        1.0000    0.61400   0.36830   0.89890   Biso      1.000     H          0.138937  
         H6        1.0000    0.61950   0.46970   0.90100   Biso      1.000     H          0.148812  
         H7        1.0000    0.99200   0.56380   0.70670   Biso      1.000     H          0.139653  
         H8        1.0000    0.12690   0.26660   0.02150   Biso      1.000     H          0.147816  
         H9        1.0000    0.92330   0.69420   0.73310   Biso      1.000     H          0.125368  
         H10       1.0000    0.93380   0.36440   0.64820   Biso      1.000     H          0.154244  
         H11       1.0000    0.04770   0.45520   0.69700   Biso      1.000     H          0.134119  
         H12       1.0000    0.04110   0.36040   0.71070   Biso      1.000     H          0.152866  
         H13       1.0000    0.59120   0.56260   0.80170   Biso      1.000     H          0.151256  
         H14       1.0000    0.33840   0.60970   0.83250   Biso      1.000     H          0.130353  
         H15       1.0000    0.94220   0.51890   0.92590   Biso      1.000     H          0.122459  
         H16       1.0000    0.25930   0.27160   0.79070   Biso      1.000     H          0.126011  
         H17       1.0000    0.00440   0.66210   0.90850   Biso      1.000     H          0.119092  
         H18       1.0000    0.44210   0.95270   0.41990   Biso      1.000     H          0.119455  
         H19       1.0000    0.43000   0.01260   0.33230   Biso      1.000     H          0.119398  
         H20       1.0000    0.97100   0.90470   0.28140   Biso      1.000     H          0.118198  
         H21       1.0000    0.98400   0.84950   0.37030   Biso      1.000     H          0.121712  
         H22       1.0000    0.68150   0.85730   0.41110   Biso      1.000     H          0.150039  
         H23       1.0000    0.66810   0.88640   0.48100   Biso      1.000     H          0.133592  
         H24       1.0000    0.66820   0.78630   0.45140   Biso      1.000     H          0.14635   
         H25       1.0000    0.28100   0.91460   0.62680   Biso      1.000     H          0.148679  
         H26       1.0000    0.37700   0.79020   0.26010   Biso      1.000     H          0.128881  
         H27       1.0000    0.86890   0.83500   0.66510   Biso      1.000     H          0.124229  
         H28       1.0000    0.27330   0.46380   0.84700   Biso      1.000     H          0.118725  
         H29       1.0000    0.23230   0.15690   0.84190   Biso      1.000     H          0.121754  
         H30       1.0000    0.74690   0.83490   0.56680   Biso      1.000     H          0.138709  
         H31       1.0000    0.62300   0.20980   0.73990   Biso      1.000     H          0.128882  
         H32       1.0000    0.58890   0.09370   0.79040   Biso      1.000     H          0.120715  
         H33       1.0000    0.76770   0.84310   0.15810   Biso      1.000     H          0.121753  
         H34       1.0000    0.74070   0.72840   0.20930   Biso      1.000     H          0.12601   
         H35       1.0000    0.95230   0.54480   0.30300   Biso      1.000     H          0.134121  
         H36       1.0000    0.06620   0.63560   0.35180   Biso      1.000     H          0.154246  
         H37       1.0000    0.07670   0.30580   0.26690   Biso      1.000     H          0.125363  
         H38       1.0000    0.00800   0.43620   0.29330   Biso      1.000     H          0.139653  
         H39       1.0000    0.40880   0.43740   0.19830   Biso      1.000     H          0.151253  
         H40       1.0000    0.38050   0.53030   0.09900   Biso      1.000     H          0.148811  
         H41       1.0000    0.38600   0.63170   0.10110   Biso      1.000     H          0.138937  
         H42       1.0000    0.31760   0.55480   0.03630   Biso      1.000     H          0.134262  
         H43       1.0000    0.40580   0.70650   0.02520   Biso      1.000     H          0.141241  
         H44       1.0000    0.49060   0.80800   0.96890   Biso      1.000     H          0.129956  
         H45       1.0000    0.87310   0.73340   0.97850   Biso      1.000     H          0.147815  
         H46       1.0000    0.95890   0.63960   0.28930   Biso      1.000     H          0.152865  
         H47       1.0000    0.72670   0.53620   0.15300   Biso      1.000     H          0.118724  
         H48       1.0000    0.66160   0.39030   0.16750   Biso      1.000     H          0.130352  
         H49       1.0000    0.25310   0.16510   0.43320   Biso      1.000     H          0.13871   
         H50       1.0000    0.33180   0.21370   0.54860   Biso      1.000     H          0.146348  
         H51       1.0000    0.33190   0.11360   0.51900   Biso      1.000     H          0.133592  
         H52       1.0000    0.31850   0.14270   0.58890   Biso      1.000     H          0.150039  
         H53       1.0000    0.01600   0.15050   0.62970   Biso      1.000     H          0.12171   
         H54       1.0000    0.71900   0.08540   0.37320   Biso      1.000     H          0.148677  
         H55       1.0000    0.57000   0.98740   0.66770   Biso      1.000     H          0.119399  
         H56       1.0000    0.05780   0.48110   0.07410   Biso      1.000     H          0.122458  
         H57       1.0000    0.02900   0.09530   0.71860   Biso      1.000     H          0.118198  
         H58       1.0000    0.13110   0.16500   0.33490   Biso      1.000     H          0.124227  
         H59       1.0000    0.99560   0.33790   0.09150   Biso      1.000     H          0.11909   
         H60       1.0000    0.55790   0.04730   0.58010   Biso      1.000     H          0.119454  
         O1        1.0000    0.69170   0.23720   0.17490   Biso      1.000     O          -0.546639           
         O2        1.0000    0.86360   0.40270   0.72480   Biso      1.000     O          -0.105946           
         O3        1.0000    0.91050   0.13900   0.23860   Biso      1.000     O          -0.525926           
         O4        1.0000    0.68790   0.11050   0.26450   Biso      1.000     O          -0.568884           
         O5        1.0000    0.81760   0.07470   0.48610   Biso      1.000     O          -0.325022           
         O6        1.0000    0.89070   0.23630   0.54750   Biso      1.000     O          -0.531763           
         O7        1.0000    0.61660   0.14350   0.50530   Biso      1.000     O          -0.539408           
         O8        1.0000    0.94020   0.99900   0.78930   Biso      1.000     O          -0.58186  
         O9        1.0000    0.68430   0.96350   0.77070   Biso      1.000     O          -0.582342           
         O10       1.0000    0.87010   0.20750   0.12680   Biso      1.000     O          -0.563327           
         O11       1.0000    0.50090   0.31950   0.66810   Biso      1.000     O          -0.525692           
         O12       1.0000    0.12390   0.12170   0.52360   Biso      1.000     O          -0.124898           
         O13       1.0000    0.87940   0.85400   0.92410   Biso      1.000     O          -0.557939           
         O14       1.0000    0.91360   0.69640   0.14430   Biso      1.000     O          -0.509418           
         O15       1.0000    0.80840   0.60520   0.03170   Biso      1.000     O          -0.32807  
         O16       1.0000    0.50310   0.99840   0.13770   Biso      1.000     O          -0.479682           
         O17       1.0000    0.73000   0.98240   0.12780   Biso      1.000     O          -0.572619           
         O18       1.0000    0.65890   0.88530   0.90580   Biso      1.000     O          -0.533924           
         O19       1.0000    0.63590   0.60880   0.26370   Biso      1.000     O          -0.534135           
         O20       1.0000    0.36460   0.59480   0.22120   Biso      1.000     O          -0.324355           
         O21       1.0000    0.42810   0.28310   0.19880   Biso      1.000     O          -0.541599           
         O22       1.0000    0.54580   0.59340   0.06530   Biso      1.000     O          -0.116841           
         O23       1.0000    0.78580   0.80520   0.78960   Biso      1.000     O          -0.581963           
         O24       1.0000    0.21420   0.19480   0.21040   Biso      1.000     O          -0.581961           
         O25       1.0000    0.08670   0.65140   0.08290   Biso      1.000     O          -0.530742           
         O26       1.0000    0.45420   0.40660   0.93470   Biso      1.000     O          -0.116842           
         O27       1.0000    0.38340   0.85650   0.49470   Biso      1.000     O          -0.539408           
         O28       1.0000    0.63540   0.40520   0.77880   Biso      1.000     O          -0.324353           
         O29       1.0000    0.13640   0.59730   0.27520   Biso      1.000     O          -0.10595  
         O30       1.0000    0.08950   0.86100   0.76140   Biso      1.000     O          -0.525914           
         O31       1.0000    0.31210   0.88950   0.73550   Biso      1.000     O          -0.568876           
         O32       1.0000    0.87610   0.87830   0.47640   Biso      1.000     O          -0.124893           
         O33       1.0000    0.18240   0.92530   0.51390   Biso      1.000     O          -0.325021           
         O34       1.0000    0.57190   0.71690   0.80120   Biso      1.000     O          -0.5416   
         O35       1.0000    0.05980   0.00100   0.21070   Biso      1.000     O          -0.581857           
         O36       1.0000    0.31570   0.03650   0.22930   Biso      1.000     O          -0.582344           
         O37       1.0000    0.12990   0.79250   0.87320   Biso      1.000     O          -0.563325           
         O38       1.0000    0.10930   0.76370   0.45250   Biso      1.000     O          -0.531763           
         O39       1.0000    0.91330   0.34860   0.91710   Biso      1.000     O          -0.530742           
         O40       1.0000    0.08640   0.30360   0.85570   Biso      1.000     O          -0.509418           
         O41       1.0000    0.19160   0.39480   0.96830   Biso      1.000     O          -0.328071           
         O42       1.0000    0.49690   0.00160   0.86230   Biso      1.000     O          -0.479684           
         O43       1.0000    0.27000   0.01760   0.87220   Biso      1.000     O          -0.572623           
         O44       1.0000    0.12060   0.14600   0.07590   Biso      1.000     O          -0.557936           
         O45       1.0000    0.34110   0.11470   0.09420   Biso      1.000     O          -0.533918           
         O46       1.0000    0.36410   0.39120   0.73630   Biso      1.000     O          -0.534134           
         O47       1.0000    0.30830   0.76280   0.82510   Biso      1.000     O          -0.546641           
         O48       1.0000    0.49910   0.68050   0.33190   Biso      1.000     O          -0.525693           
         S1        1.0000    0.52540   0.65586   0.27163   Biso      1.000     S          1.128738  
         S2        1.0000    0.94000   0.63065   0.09743   Biso      1.000     S          1.125781  
         S3        1.0000    0.77410   0.15116   0.53249   Biso      1.000     S          1.129305  
         S4        1.0000    0.47460   0.34414   0.72837   Biso      1.000     S          1.128736  
         S5        1.0000    0.06000   0.36935   0.90257   Biso      1.000     S          1.125781  
         S6        1.0000    0.22590   0.84884   0.46751   Biso      1.000     S          1.129302 