
##########################################################################
#               Crystallographic Information Format file
#               Produced by PyCifRW module
#
#  This is a CIF file.  CIF has been adopted by the International
#  Union of Crystallography as the standard for data archiving and
#  transmission.
#
#  For information on this file format, follow the CIF links at
#  http://www.iucr.org
##########################################################################

data_image0

_cell_length_a                          9.2654
_cell_length_b                          15.642
_cell_length_c                          22.287
_cell_angle_alpha                       102.15
_cell_angle_beta                        101.48
_cell_angle_gamma                       104.44
_symmetry_space_group_name_H-M          'P 1'
_symmetry_int_tables_number             1
loop_
  _symmetry_equiv_pos_as_xyz
         'x, y, z' 
loop_
  _atom_site_label
  _atom_site_occupancy
  _atom_site_fract_x
  _atom_site_fract_y
  _atom_site_fract_z
  _atom_site_thermal_displace_type
  _atom_site_B_iso_or_equiv
  _atom_site_type_symbol
  _atom_site_charge
         C1        1.0000    0.44590   0.25240   0.76190   Biso      1.000     C          -0.085621           
         C2        1.0000    0.44820   0.22630   0.01870   Biso      1.000     C          -0.060419           
         C3        1.0000    0.50080   0.28750   0.98470   Biso      1.000     C          -0.21493  
         C4        1.0000    0.41390   0.34100   0.96650   Biso      1.000     C          0.181664  
         C5        1.0000    0.25020   0.15460   0.07000   Biso      1.000     C          0.653121  
         C6        1.0000    0.60360   0.42200   0.92380   Biso      1.000     C          -0.262078           
         C7        1.0000    0.70570   0.72690   0.78880   Biso      1.000     C          0.603574  
         C8        1.0000    0.75370   0.64380   0.77150   Biso      1.000     C          -0.046821           
         C9        1.0000    0.67390   0.56280   0.78300   Biso      1.000     C          -0.204075           
         C10       1.0000    0.30790   0.21760   0.03240   Biso      1.000     C          -0.042796           
         C11       1.0000    0.71350   0.48490   0.76590   Biso      1.000     C          0.159501  
         C12       1.0000    0.91320   0.56260   0.72540   Biso      1.000     C          -0.214759           
         C13       1.0000    0.87240   0.64280   0.74230   Biso      1.000     C          -0.076823           
         C14       1.0000    0.98210   0.39270   0.69220   Biso      1.000     C          -0.253091           
         C15       1.0000    0.32710   0.23590   0.79130   Biso      1.000     C          -0.100071           
         C16       1.0000    0.30780   0.16550   0.82040   Biso      1.000     C          -0.08862  
         C17       1.0000    0.40810   0.11320   0.82080   Biso      1.000     C          -0.020324           
         C18       1.0000    0.52380   0.12980   0.79080   Biso      1.000     C          -0.082032           
         C19       1.0000    0.54420   0.19920   0.76060   Biso      1.000     C          -0.09225  
         C20       1.0000    0.83420   0.48360   0.73690   Biso      1.000     C          0.186084  
         C21       1.0000    0.21860   0.27040   0.01270   Biso      1.000     C          -0.205831           
         C22       1.0000    0.27130   0.33180   0.98140   Biso      1.000     C          0.1675    
         C23       1.0000    0.17080   0.87650   0.72370   Biso      1.000     C          0.672516  
         C24       1.0000    0.10380   0.47930   0.88940   Biso      1.000     C          -0.075589           
         C25       1.0000    0.02290   0.53850   0.90800   Biso      1.000     C          -0.099805           
         C26       1.0000    0.05780   0.62400   0.89710   Biso      1.000     C          -0.092672           
         C27       1.0000    0.17610   0.64940   0.86720   Biso      1.000     C          -0.02216  
         C28       1.0000    0.20850   0.74340   0.85550   Biso      1.000     C          0.673272  
         C29       1.0000    0.18890   0.00420   0.24120   Biso      1.000     C          0.678732  
         C30       1.0000    0.34860   0.94450   0.39060   Biso      1.000     C          -0.090034           
         C31       1.0000    0.34020   0.97970   0.33910   Biso      1.000     C          -0.095722           
         C32       1.0000    0.20000   0.96600   0.29860   Biso      1.000     C          -0.022685           
         C33       1.0000    0.06590   0.91700   0.30950   Biso      1.000     C          -0.073686           
         C34       1.0000    0.07490   0.88020   0.36110   Biso      1.000     C          -0.096211           
         C35       1.0000    0.21500   0.89510   0.40090   Biso      1.000     C          -0.060284           
         C36       1.0000    0.71110   0.85130   0.45300   Biso      1.000     C          -0.255095           
         C37       1.0000    0.17380   0.89870   0.61510   Biso      1.000     C          -0.201183           
         C38       1.0000    0.09590   0.89880   0.55580   Biso      1.000     C          0.16031   
         C39       1.0000    0.93620   0.87620   0.53620   Biso      1.000     C          0.185691  
         C40       1.0000    0.85430   0.85080   0.57880   Biso      1.000     C          -0.212398           
         C41       1.0000    0.92860   0.85070   0.63870   Biso      1.000     C          -0.081324           
         C42       1.0000    0.08870   0.87550   0.65830   Biso      1.000     C          -0.048732           
         C43       1.0000    0.38870   0.03760   0.85370   Biso      1.000     C          0.679425  
         C44       1.0000    0.82920   0.12350   0.27630   Biso      1.000     C          0.672516  
         C45       1.0000    0.91130   0.12450   0.34170   Biso      1.000     C          -0.048732           
         C46       1.0000    0.07140   0.14930   0.36130   Biso      1.000     C          -0.081327           
         C47       1.0000    0.49920   0.71250   0.01530   Biso      1.000     C          -0.214931           
         C48       1.0000    0.58610   0.65900   0.03350   Biso      1.000     C          0.181666  
         C49       1.0000    0.74980   0.84540   0.93000   Biso      1.000     C          0.653121  
         C50       1.0000    0.39640   0.57800   0.07620   Biso      1.000     C          -0.262078           
         C51       1.0000    0.29430   0.27310   0.21120   Biso      1.000     C          0.603574  
         C52       1.0000    0.24630   0.35620   0.22850   Biso      1.000     C          -0.046821           
         C53       1.0000    0.32610   0.43720   0.21700   Biso      1.000     C          -0.204075           
         C54       1.0000    0.28650   0.51510   0.23410   Biso      1.000     C          0.159501  
         C55       1.0000    0.16580   0.51640   0.26310   Biso      1.000     C          0.186079  
         C56       1.0000    0.08680   0.43740   0.27460   Biso      1.000     C          -0.214753           
         C57       1.0000    0.12760   0.35720   0.25770   Biso      1.000     C          -0.076824           
         C58       1.0000    0.01790   0.60730   0.30780   Biso      1.000     C          -0.253091           
         C59       1.0000    0.55410   0.74760   0.23810   Biso      1.000     C          -0.085621           
         C60       1.0000    0.67290   0.76410   0.20870   Biso      1.000     C          -0.100071           
         C61       1.0000    0.69220   0.83450   0.17960   Biso      1.000     C          -0.08862  
         C62       1.0000    0.59190   0.88680   0.17920   Biso      1.000     C          -0.020324           
         C63       1.0000    0.47620   0.87020   0.20920   Biso      1.000     C          -0.082032           
         C64       1.0000    0.45580   0.80080   0.23940   Biso      1.000     C          -0.09225  
         C65       1.0000    0.61130   0.96240   0.14630   Biso      1.000     C          0.679425  
         C66       1.0000    0.55180   0.77370   0.98130   Biso      1.000     C          -0.060419           
         C67       1.0000    0.22100   0.50400   0.86050   Biso      1.000     C          -0.092293           
         C68       1.0000    0.69210   0.78240   0.96760   Biso      1.000     C          -0.042798           
         C69       1.0000    0.72870   0.66820   0.01860   Biso      1.000     C          0.167486  
         C70       1.0000    0.14570   0.14920   0.42120   Biso      1.000     C          -0.212397           
         C71       1.0000    0.06380   0.12380   0.46380   Biso      1.000     C          0.185692  
         C72       1.0000    0.90410   0.10120   0.44420   Biso      1.000     C          0.160307  
         C73       1.0000    0.82620   0.10130   0.38490   Biso      1.000     C          -0.20118  
         C74       1.0000    0.28890   0.14870   0.54700   Biso      1.000     C          -0.255095           
         C75       1.0000    0.78500   0.10490   0.59910   Biso      1.000     C          -0.060302           
         C76       1.0000    0.92510   0.11980   0.63890   Biso      1.000     C          -0.096196           
         C77       1.0000    0.93410   0.08300   0.69050   Biso      1.000     C          -0.073691           
         C78       1.0000    0.80000   0.03400   0.70140   Biso      1.000     C          -0.022688           
         C79       1.0000    0.65980   0.02030   0.66090   Biso      1.000     C          -0.09572  
         C80       1.0000    0.65140   0.05550   0.60940   Biso      1.000     C          -0.090026           
         C81       1.0000    0.81110   0.99580   0.75880   Biso      1.000     C          0.678733  
         C82       1.0000    0.79150   0.25660   0.14450   Biso      1.000     C          0.673272  
         C83       1.0000    0.82390   0.35060   0.13280   Biso      1.000     C          -0.02216  
         C84       1.0000    0.94220   0.37600   0.10290   Biso      1.000     C          -0.092673           
         C85       1.0000    0.97710   0.46150   0.09200   Biso      1.000     C          -0.099806           
         C86       1.0000    0.89620   0.52070   0.11060   Biso      1.000     C          -0.075586           
         C87       1.0000    0.77900   0.49600   0.13950   Biso      1.000     C          -0.092293           
         C88       1.0000    0.74330   0.40890   0.14880   Biso      1.000     C          -0.084376           
         C89       1.0000    0.78140   0.72960   0.98730   Biso      1.000     C          -0.205816           
         C90       1.0000    0.25670   0.59110   0.85120   Biso      1.000     C          -0.084376           
         Gd1       1.0000    0.51414   0.86011   0.80226   Biso      1.000     Gd          2.032246  
         Gd2       1.0000    0.03054   0.91215   0.85650   Biso      1.000     Gd          2.13848   
         Gd3       1.0000    0.48586   0.13989   0.19774   Biso      1.000     Gd          2.032246  
         Gd4       1.0000    0.96946   0.08785   0.14350   Biso      1.000     Gd          2.13848   
         H1        1.0000    0.47920   0.25790   0.29860   Biso      1.000     H          0.456328  
         H2        1.0000    0.59450   0.29180   0.97460   Biso      1.000     H          0.142246  
         H3        1.0000    0.68110   0.44180   0.96370   Biso      1.000     H          0.127528  
         H4        1.0000    0.61060   0.36620   0.89830   Biso      1.000     H          0.130733  
         H5        1.0000    0.61970   0.46860   0.90170   Biso      1.000     H          0.146755  
         H6        1.0000    0.59350   0.56230   0.80230   Biso      1.000     H          0.150469  
         H7        1.0000    0.99390   0.56270   0.70640   Biso      1.000     H          0.141805  
         H8        1.0000    0.96630   0.41700   0.65620   Biso      1.000     H          0.139773  
         H9        1.0000    0.50860   0.19100   0.03220   Biso      1.000     H          0.126667  
         H10       1.0000    0.08230   0.42640   0.72060   Biso      1.000     H          0.132846  
         H11       1.0000    0.97580   0.32920   0.67800   Biso      1.000     H          0.149981  
         H12       1.0000    0.26090   0.27180   0.79140   Biso      1.000     H          0.125733  
         H13       1.0000    0.22750   0.15340   0.83960   Biso      1.000     H          0.121531  
         H14       1.0000    0.92530   0.69590   0.73380   Biso      1.000     H          0.126947  
         H15       1.0000    0.12240   0.26380   0.02080   Biso      1.000     H          0.150738  
         H16       1.0000    0.27430   0.46340   0.84770   Biso      1.000     H          0.123938  
         H17       1.0000    0.58990   0.09380   0.79080   Biso      1.000     H          0.120144  
         H18       1.0000    0.94530   0.52090   0.92780   Biso      1.000     H          0.123523  
         H19       1.0000    0.00380   0.66440   0.90940   Biso      1.000     H          0.121327  
         H20       1.0000    0.44390   0.95410   0.41840   Biso      1.000     H          0.121222  
         H21       1.0000    0.43010   0.01290   0.33180   Biso      1.000     H          0.115383  
         H22       1.0000    0.97020   0.90870   0.28230   Biso      1.000     H          0.119162  
         H23       1.0000    0.98570   0.84580   0.36830   Biso      1.000     H          0.125967  
         H24       1.0000    0.68300   0.84970   0.40880   Biso      1.000     H          0.145007  
         H25       1.0000    0.67310   0.89510   0.47700   Biso      1.000     H          0.125524  
         H26       1.0000    0.66670   0.79160   0.45780   Biso      1.000     H          0.142276  
         H27       1.0000    0.51940   0.17920   0.30440   Biso      1.000     H          0.419206  
         H28       1.0000    0.74690   0.83340   0.56650   Biso      1.000     H          0.133681  
         H29       1.0000    0.87090   0.83390   0.66630   Biso      1.000     H          0.118564  
         H30       1.0000    0.33810   0.60980   0.83360   Biso      1.000     H          0.129979  
         H31       1.0000    0.62220   0.20960   0.74000   Biso      1.000     H          0.127     
         H32       1.0000    0.28110   0.91370   0.62660   Biso      1.000     H          0.142218  
         H33       1.0000    0.48060   0.82080   0.69560   Biso      1.000     H          0.419206  
         H34       1.0000    0.52080   0.74210   0.70140   Biso      1.000     H          0.456328  
         H35       1.0000    0.37780   0.79040   0.26000   Biso      1.000     H          0.127     
         H36       1.0000    0.41010   0.90620   0.20920   Biso      1.000     H          0.120144  
         H37       1.0000    0.73910   0.72820   0.20860   Biso      1.000     H          0.125733  
         H38       1.0000    0.02420   0.67080   0.32200   Biso      1.000     H          0.149981  
         H39       1.0000    0.91770   0.57360   0.27940   Biso      1.000     H          0.132846  
         H40       1.0000    0.03370   0.58300   0.34380   Biso      1.000     H          0.139773  
         H41       1.0000    0.07470   0.30410   0.26620   Biso      1.000     H          0.126947  
         H42       1.0000    0.00610   0.43730   0.29360   Biso      1.000     H          0.141804  
         H43       1.0000    0.40650   0.43770   0.19770   Biso      1.000     H          0.150469  
         H44       1.0000    0.38030   0.53140   0.09830   Biso      1.000     H          0.146755  
         H45       1.0000    0.38940   0.63380   0.10170   Biso      1.000     H          0.130733  
         H46       1.0000    0.31890   0.55820   0.03630   Biso      1.000     H          0.127528  
         H47       1.0000    0.40550   0.70820   0.02540   Biso      1.000     H          0.142246  
         H48       1.0000    0.49140   0.80900   0.96780   Biso      1.000     H          0.126667  
         H49       1.0000    0.77250   0.84660   0.16040   Biso      1.000     H          0.121531  
         H50       1.0000    0.71890   0.08630   0.37340   Biso      1.000     H          0.142218  
         H51       1.0000    0.25310   0.16660   0.43350   Biso      1.000     H          0.133681  
         H52       1.0000    0.12910   0.16610   0.33370   Biso      1.000     H          0.118565  
         H53       1.0000    0.33330   0.20840   0.54220   Biso      1.000     H          0.142276  
         H54       1.0000    0.32690   0.10490   0.52300   Biso      1.000     H          0.125524  
         H55       1.0000    0.01430   0.15420   0.63170   Biso      1.000     H          0.125967  
         H56       1.0000    0.02980   0.09130   0.71770   Biso      1.000     H          0.119162  
         H57       1.0000    0.31700   0.15030   0.59120   Biso      1.000     H          0.145007  
         H58       1.0000    0.55610   0.04590   0.58160   Biso      1.000     H          0.121221  
         H59       1.0000    0.99620   0.33560   0.09060   Biso      1.000     H          0.121327  
         H60       1.0000    0.05470   0.47910   0.07220   Biso      1.000     H          0.123523  
         H61       1.0000    0.72570   0.53660   0.15230   Biso      1.000     H          0.123938  
         H62       1.0000    0.66190   0.39020   0.16640   Biso      1.000     H          0.129979  
         H63       1.0000    0.56990   0.98710   0.66820   Biso      1.000     H          0.115382  
         H64       1.0000    0.87760   0.73620   0.97920   Biso      1.000     H          0.150737  
         O1        1.0000    0.89160   0.23660   0.54820   Biso      1.000     O          -0.519452           
         O2        1.0000    0.86780   0.20650   0.12680   Biso      1.000     O          -0.68468  
         O3        1.0000    0.68510   0.96260   0.77070   Biso      1.000     O          -0.726322           
         O4        1.0000    0.93960   0.99870   0.78990   Biso      1.000     O          -0.657318           
         O5        1.0000    0.61790   0.14450   0.50530   Biso      1.000     O          -0.53512  
         O6        1.0000    0.20910   0.19460   0.20990   Biso      1.000     O          -0.750596           
         O7        1.0000    0.12430   0.12260   0.52430   Biso      1.000     O          -0.13877  
         O8        1.0000    0.68500   0.11020   0.26480   Biso      1.000     O          -0.679334           
         O9        1.0000    0.91040   0.13910   0.23840   Biso      1.000     O          -0.681965           
         O10       1.0000    0.50210   0.31820   0.66840   Biso      1.000     O          -0.52042  
         O11       1.0000    0.86520   0.40090   0.72500   Biso      1.000     O          -0.149476           
         O12       1.0000    0.81790   0.07330   0.48620   Biso      1.000     O          -0.316139           
         O13       1.0000    0.69080   0.23700   0.17440   Biso      1.000     O          -0.669756           
         O14       1.0000    0.65760   0.88520   0.90460   Biso      1.000     O          -0.705734           
         O15       1.0000    0.91210   0.69640   0.14410   Biso      1.000     O          -0.515787           
         O16       1.0000    0.80980   0.60550   0.03160   Biso      1.000     O          -0.326157           
         O17       1.0000    0.50580   0.99970   0.13870   Biso      1.000     O          -0.644999           
         O18       1.0000    0.72960   0.98300   0.12760   Biso      1.000     O          -0.717836           
         O19       1.0000    0.88190   0.85430   0.92340   Biso      1.000     O          -0.692216           
         O20       1.0000    0.63690   0.60860   0.26320   Biso      1.000     O          -0.534184           
         O21       1.0000    0.36430   0.59540   0.22090   Biso      1.000     O          -0.314715           
         O22       1.0000    0.55250   0.23570   0.30670   Biso      1.000     O          -0.820768           
         O23       1.0000    0.42380   0.28120   0.19910   Biso      1.000     O          -0.622029           
         O24       1.0000    0.54640   0.59380   0.06490   Biso      1.000     O          -0.146541           
         O25       1.0000    0.79090   0.80540   0.79010   Biso      1.000     O          -0.750596           
         O26       1.0000    0.08620   0.65050   0.08270   Biso      1.000     O          -0.53389  
         O27       1.0000    0.45360   0.40620   0.93510   Biso      1.000     O          -0.146541           
         O28       1.0000    0.38210   0.85550   0.49470   Biso      1.000     O          -0.53512  
         O29       1.0000    0.44750   0.76430   0.69330   Biso      1.000     O          -0.820768           
         O30       1.0000    0.13480   0.59910   0.27500   Biso      1.000     O          -0.149476           
         O31       1.0000    0.08960   0.86090   0.76160   Biso      1.000     O          -0.681965           
         O32       1.0000    0.31500   0.88980   0.73520   Biso      1.000     O          -0.679334           
         O33       1.0000    0.87570   0.87740   0.47570   Biso      1.000     O          -0.138769           
         O34       1.0000    0.18210   0.92670   0.51380   Biso      1.000     O          -0.31614  
         O35       1.0000    0.10840   0.76340   0.45180   Biso      1.000     O          -0.519452           
         O36       1.0000    0.57620   0.71880   0.80090   Biso      1.000     O          -0.622029           
         O37       1.0000    0.31490   0.03740   0.22930   Biso      1.000     O          -0.726322           
         O38       1.0000    0.13220   0.79350   0.87320   Biso      1.000     O          -0.68468  
         O39       1.0000    0.06040   0.00130   0.21010   Biso      1.000     O          -0.657318           
         O40       1.0000    0.91380   0.34950   0.91730   Biso      1.000     O          -0.53389  
         O41       1.0000    0.63570   0.40460   0.77910   Biso      1.000     O          -0.314715           
         O42       1.0000    0.30920   0.76300   0.82560   Biso      1.000     O          -0.669756           
         O43       1.0000    0.36310   0.39140   0.73680   Biso      1.000     O          -0.534184           
         O44       1.0000    0.34240   0.11480   0.09540   Biso      1.000     O          -0.705734           
         O45       1.0000    0.49790   0.68180   0.33160   Biso      1.000     O          -0.52042  
         O46       1.0000    0.27040   0.01700   0.87240   Biso      1.000     O          -0.717836           
         O47       1.0000    0.49420   0.00030   0.86130   Biso      1.000     O          -0.644999           
         O48       1.0000    0.19020   0.39450   0.96840   Biso      1.000     O          -0.326158           
         O49       1.0000    0.08790   0.30360   0.85590   Biso      1.000     O          -0.515787           
         O50       1.0000    0.11810   0.14570   0.07660   Biso      1.000     O          -0.692216           
         S1        1.0000    0.93990   0.63030   0.09723   Biso      1.000     S          1.122768  
         S2        1.0000    0.77450   0.15070   0.53249   Biso      1.000     S          1.115892  
         S3        1.0000    0.47540   0.34430   0.72869   Biso      1.000     S          1.124019  
         S4        1.0000    0.06010   0.36970   0.90277   Biso      1.000     S          1.122769  
         S5        1.0000    0.22550   0.84930   0.46751   Biso      1.000     S          1.115891  
         S6        1.0000    0.52460   0.65570   0.27131   Biso      1.000     S          1.124019 