
##########################################################################
#               Crystallographic Information Format file
#               Produced by PyCifRW module
#
#  This is a CIF file.  CIF has been adopted by the International
#  Union of Crystallography as the standard for data archiving and
#  transmission.
#
#  For information on this file format, follow the CIF links at
#  http://www.iucr.org
##########################################################################

data_image0

_cell_length_a                          9.3379
_cell_length_b                          15.71
_cell_length_c                          22.431
_cell_angle_alpha                       102.47
_cell_angle_beta                        101.71
_cell_angle_gamma                       104.9
_symmetry_space_group_name_H-M          'P 1'
_symmetry_int_tables_number             1
loop_
  _symmetry_equiv_pos_as_xyz
         'x, y, z' 
loop_
  _atom_site_label
  _atom_site_occupancy
  _atom_site_fract_x
  _atom_site_fract_y
  _atom_site_fract_z
  _atom_site_thermal_displace_type
  _atom_site_B_iso_or_equiv
  _atom_site_type_symbol
  _atom_site_charge
         C1        1.0000    0.44780   0.25220   0.76130   Biso      1.000     C          -0.085845           
         C2        1.0000    0.83640   0.48500   0.73750   Biso      1.000     C          0.185478  
         C3        1.0000    0.91330   0.56500   0.72580   Biso      1.000     C          -0.209379           
         C4        1.0000    0.87420   0.64320   0.74340   Biso      1.000     C          -0.080148           
         C5        1.0000    0.98310   0.39640   0.69290   Biso      1.000     C          -0.247144           
         C6        1.0000    0.33230   0.23660   0.79110   Biso      1.000     C          -0.096715           
         C7        1.0000    0.31600   0.16960   0.82130   Biso      1.000     C          -0.089104           
         C8        1.0000    0.41470   0.11620   0.82080   Biso      1.000     C          -0.021467           
         C9        1.0000    0.52870   0.13160   0.78910   Biso      1.000     C          -0.087746           
         C10       1.0000    0.54350   0.19950   0.75920   Biso      1.000     C          -0.094036           
         C11       1.0000    0.40130   0.04100   0.85510   Biso      1.000     C          0.667528  
         C12       1.0000    0.82620   0.12460   0.27810   Biso      1.000     C          0.668693  
         C13       1.0000    0.90790   0.12350   0.34210   Biso      1.000     C          -0.044895           
         C14       1.0000    0.06870   0.14780   0.36090   Biso      1.000     C          -0.080157           
         C15       1.0000    0.14580   0.14860   0.42020   Biso      1.000     C          -0.214639           
         C16       1.0000    0.06650   0.12540   0.46350   Biso      1.000     C          0.1872    
         C17       1.0000    0.71850   0.48550   0.76530   Biso      1.000     C          0.159011  
         C18       1.0000    0.67560   0.56220   0.78250   Biso      1.000     C          -0.197885           
         C19       1.0000    0.75470   0.64280   0.77190   Biso      1.000     C          -0.046758           
         C20       1.0000    0.70140   0.72480   0.78830   Biso      1.000     C          0.586616  
         C21       1.0000    0.34360   0.94280   0.39170   Biso      1.000     C          -0.097477           
         C22       1.0000    0.17500   0.99880   0.24160   Biso      1.000     C          0.669908  
         C23       1.0000    0.21280   0.74140   0.85430   Biso      1.000     C          0.665968  
         C24       1.0000    0.18110   0.64990   0.86770   Biso      1.000     C          -0.018954           
         C25       1.0000    0.06500   0.62240   0.89600   Biso      1.000     C          -0.09302  
         C26       1.0000    0.03180   0.53820   0.90680   Biso      1.000     C          -0.095431           
         C27       1.0000    0.11420   0.47920   0.88980   Biso      1.000     C          -0.08489  
         C28       1.0000    0.90630   0.10070   0.44430   Biso      1.000     C          0.158544  
         C29       1.0000    0.22920   0.50590   0.86120   Biso      1.000     C          -0.085945           
         C30       1.0000    0.28480   0.33720   0.98210   Biso      1.000     C          0.162431  
         C31       1.0000    0.30930   0.22200   0.03240   Biso      1.000     C          -0.039121           
         C32       1.0000    0.44790   0.22600   0.01740   Biso      1.000     C          -0.070641           
         C33       1.0000    0.50380   0.28540   0.98430   Biso      1.000     C          -0.214517           
         C34       1.0000    0.42280   0.34240   0.96630   Biso      1.000     C          0.183846  
         C35       1.0000    0.24750   0.15980   0.06960   Biso      1.000     C          0.635739  
         C36       1.0000    0.62000   0.41590   0.92250   Biso      1.000     C          -0.255599           
         C37       1.0000    0.26310   0.59120   0.85070   Biso      1.000     C          -0.087185           
         C38       1.0000    0.82790   0.10220   0.38510   Biso      1.000     C          -0.198887           
         C39       1.0000    0.29160   0.14850   0.54480   Biso      1.000     C          -0.254341           
         C40       1.0000    0.79200   0.10570   0.59810   Biso      1.000     C          -0.067818           
         C41       1.0000    0.38000   0.58410   0.07750   Biso      1.000     C          -0.255599           
         C42       1.0000    0.29860   0.27520   0.21170   Biso      1.000     C          0.586616  
         C43       1.0000    0.24530   0.35720   0.22810   Biso      1.000     C          -0.046759           
         C44       1.0000    0.32440   0.43780   0.21750   Biso      1.000     C          -0.197888           
         C45       1.0000    0.28150   0.51450   0.23470   Biso      1.000     C          0.159012  
         C46       1.0000    0.16360   0.51500   0.26250   Biso      1.000     C          0.185481  
         C47       1.0000    0.08670   0.43500   0.27420   Biso      1.000     C          -0.209379           
         C48       1.0000    0.75250   0.84020   0.93040   Biso      1.000     C          0.635738  
         C49       1.0000    0.12580   0.35680   0.25660   Biso      1.000     C          -0.080148           
         C50       1.0000    0.55220   0.74780   0.23870   Biso      1.000     C          -0.085845           
         C51       1.0000    0.66770   0.76340   0.20890   Biso      1.000     C          -0.096715           
         C52       1.0000    0.68400   0.83040   0.17870   Biso      1.000     C          -0.089104           
         C53       1.0000    0.58530   0.88380   0.17920   Biso      1.000     C          -0.021467           
         C54       1.0000    0.47130   0.86840   0.21090   Biso      1.000     C          -0.087746           
         C55       1.0000    0.45650   0.80050   0.24080   Biso      1.000     C          -0.094036           
         C56       1.0000    0.59870   0.95900   0.14490   Biso      1.000     C          0.667528  
         C57       1.0000    0.01690   0.60360   0.30710   Biso      1.000     C          -0.247143           
         C58       1.0000    0.32820   0.97510   0.33810   Biso      1.000     C          -0.096389           
         C59       1.0000    0.57720   0.65760   0.03370   Biso      1.000     C          0.183846  
         C60       1.0000    0.55210   0.77400   0.98260   Biso      1.000     C          -0.070641           
         C61       1.0000    0.93350   0.11960   0.63780   Biso      1.000     C          -0.091007           
         C62       1.0000    0.94340   0.08590   0.69020   Biso      1.000     C          -0.074141           
         C63       1.0000    0.81180   0.03800   0.70190   Biso      1.000     C          -0.016749           
         C64       1.0000    0.67180   0.02490   0.66190   Biso      1.000     C          -0.096381           
         C65       1.0000    0.65640   0.05720   0.60830   Biso      1.000     C          -0.097477           
         C66       1.0000    0.82500   0.00120   0.75840   Biso      1.000     C          0.669909  
         C67       1.0000    0.78720   0.25860   0.14570   Biso      1.000     C          0.665968  
         C68       1.0000    0.49620   0.71460   0.01570   Biso      1.000     C          -0.214517           
         C69       1.0000    0.81890   0.35010   0.13230   Biso      1.000     C          -0.018955           
         C70       1.0000    0.96820   0.46180   0.09320   Biso      1.000     C          -0.095437           
         C71       1.0000    0.88580   0.52080   0.11020   Biso      1.000     C          -0.084889           
         C72       1.0000    0.77080   0.49410   0.13880   Biso      1.000     C          -0.085945           
         C73       1.0000    0.73690   0.40880   0.14930   Biso      1.000     C          -0.087185           
         C74       1.0000    0.71520   0.66280   0.01790   Biso      1.000     C          0.162432  
         C75       1.0000    0.77250   0.72200   0.98610   Biso      1.000     C          -0.205825           
         C76       1.0000    0.69070   0.77800   0.96760   Biso      1.000     C          -0.039118           
         C77       1.0000    0.93500   0.37760   0.10400   Biso      1.000     C          -0.093013           
         C78       1.0000    0.18820   0.96200   0.29810   Biso      1.000     C          -0.016745           
         C79       1.0000    0.22750   0.27800   0.01390   Biso      1.000     C          -0.205822           
         C80       1.0000    0.06650   0.88040   0.36220   Biso      1.000     C          -0.091014           
         C81       1.0000    0.17380   0.87540   0.72190   Biso      1.000     C          0.668693  
         C82       1.0000    0.93130   0.85220   0.63910   Biso      1.000     C          -0.080157           
         C83       1.0000    0.85420   0.85140   0.57980   Biso      1.000     C          -0.214639           
         C84       1.0000    0.93350   0.87460   0.53650   Biso      1.000     C          0.1872    
         C85       1.0000    0.09210   0.87650   0.65790   Biso      1.000     C          -0.044895           
         C86       1.0000    0.17210   0.89780   0.61490   Biso      1.000     C          -0.198889           
         C87       1.0000    0.70840   0.85150   0.45520   Biso      1.000     C          -0.254341           
         C88       1.0000    0.20800   0.89430   0.40190   Biso      1.000     C          -0.067811           
         C89       1.0000    0.09370   0.89930   0.55570   Biso      1.000     C          0.158545  
         C90       1.0000    0.05660   0.91410   0.30980   Biso      1.000     C          -0.074138           
         H1        1.0000    0.96060   0.41250   0.65390   Biso      1.000     H          0.135434  
         H2        1.0000    0.61690   0.36060   0.89310   Biso      1.000     H          0.131402  
         H3        1.0000    0.64370   0.46620   0.90440   Biso      1.000     H          0.148017  
         H4        1.0000    0.59470   0.56040   0.80110   Biso      1.000     H          0.151271  
         H5        1.0000    0.99180   0.56560   0.70610   Biso      1.000     H          0.141118  
         H6        1.0000    0.92780   0.69700   0.73610   Biso      1.000     H          0.121653  
         H7        1.0000    0.59430   0.09590   0.78820   Biso      1.000     H          0.122229  
         H8        1.0000    0.26580   0.27160   0.79060   Biso      1.000     H          0.125738  
         H9        1.0000    0.23940   0.15950   0.84220   Biso      1.000     H          0.12374   
         H10       1.0000    0.69790   0.42830   0.96130   Biso      1.000     H          0.128956  
         H11       1.0000    0.61850   0.20970   0.73760   Biso      1.000     H          0.124046  
         H12       1.0000    0.51910   0.73720   0.69630   Biso      1.000     H          0.454862  
         H13       1.0000    0.98500   0.33420   0.68390   Biso      1.000     H          0.149572  
         H14       1.0000    0.59590   0.28720   0.97400   Biso      1.000     H          0.140519  
         H15       1.0000    0.95360   0.52020   0.92570   Biso      1.000     H          0.119022  
         H16       1.0000    0.13400   0.27530   0.02310   Biso      1.000     H          0.149836  
         H17       1.0000    0.87560   0.83620   0.66730   Biso      1.000     H          0.115576  
         H18       1.0000    0.74730   0.83510   0.56850   Biso      1.000     H          0.134752  
         H19       1.0000    0.27860   0.91120   0.62550   Biso      1.000     H          0.140141  
         H20       1.0000    0.66460   0.78700   0.44980   Biso      1.000     H          0.142093  
         H21       1.0000    0.67050   0.88570   0.48580   Biso      1.000     H          0.125571  
         H22       1.0000    0.67970   0.86440   0.41530   Biso      1.000     H          0.144136  
         H23       1.0000    0.50330   0.18840   0.02990   Biso      1.000     H          0.126734  
         H24       1.0000    0.97740   0.84840   0.37040   Biso      1.000     H          0.12554   
         H25       1.0000    0.41680   0.00660   0.32930   Biso      1.000     H          0.110378  
         H26       1.0000    0.43950   0.95330   0.41920   Biso      1.000     H          0.128847  
         H27       1.0000    0.00930   0.66150   0.90760   Biso      1.000     H          0.122666  
         H28       1.0000    0.47890   0.81590   0.69050   Biso      1.000     H          0.420246  
         H29       1.0000    0.28370   0.46640   0.84900   Biso      1.000     H          0.121095  
         H30       1.0000    0.34180   0.60940   0.83210   Biso      1.000     H          0.131314  
         H31       1.0000    0.96070   0.90420   0.28260   Biso      1.000     H          0.120081  
         H32       1.0000    0.12440   0.16380   0.33270   Biso      1.000     H          0.115576  
         H33       1.0000    0.08170   0.43680   0.71960   Biso      1.000     H          0.129298  
         H34       1.0000    0.72140   0.08880   0.37450   Biso      1.000     H          0.140141  
         H35       1.0000    0.52110   0.18410   0.30950   Biso      1.000     H          0.420247  
         H36       1.0000    0.48090   0.26280   0.30370   Biso      1.000     H          0.454862  
         H37       1.0000    0.25270   0.16490   0.43150   Biso      1.000     H          0.134752  
         H38       1.0000    0.38150   0.79030   0.26240   Biso      1.000     H          0.124046  
         H39       1.0000    0.40570   0.90410   0.21180   Biso      1.000     H          0.122229  
         H40       1.0000    0.76060   0.84050   0.15780   Biso      1.000     H          0.12374   
         H41       1.0000    0.73420   0.72840   0.20940   Biso      1.000     H          0.125738  
         H42       1.0000    0.01500   0.66580   0.31610   Biso      1.000     H          0.149572  
         H43       1.0000    0.91830   0.56320   0.28040   Biso      1.000     H          0.129298  
         H44       1.0000    0.03940   0.58750   0.34610   Biso      1.000     H          0.135433  
         H45       1.0000    0.00820   0.43440   0.29390   Biso      1.000     H          0.141118  
         H46       1.0000    0.40530   0.43960   0.19890   Biso      1.000     H          0.151272  
         H47       1.0000    0.35630   0.53380   0.09560   Biso      1.000     H          0.148017  
         H48       1.0000    0.38310   0.63940   0.10690   Biso      1.000     H          0.131402  
         H49       1.0000    0.30210   0.57170   0.03870   Biso      1.000     H          0.128956  
         H50       1.0000    0.07220   0.30300   0.26390   Biso      1.000     H          0.121653  
         H51       1.0000    0.32950   0.11430   0.51420   Biso      1.000     H          0.12557   
         H52       1.0000    0.33540   0.21300   0.55020   Biso      1.000     H          0.142093  
         H53       1.0000    0.40410   0.71280   0.02600   Biso      1.000     H          0.14052   
         H54       1.0000    0.32030   0.13560   0.58470   Biso      1.000     H          0.144136  
         H55       1.0000    0.02260   0.15160   0.62960   Biso      1.000     H          0.125539  
         H56       1.0000    0.03930   0.09580   0.71740   Biso      1.000     H          0.120082  
         H57       1.0000    0.56050   0.04670   0.58080   Biso      1.000     H          0.128847  
         H58       1.0000    0.58320   0.99340   0.67070   Biso      1.000     H          0.110378  
         H59       1.0000    0.04640   0.47980   0.07430   Biso      1.000     H          0.119022  
         H60       1.0000    0.71630   0.53360   0.15100   Biso      1.000     H          0.121095  
         H61       1.0000    0.65820   0.39060   0.16790   Biso      1.000     H          0.131314  
         H62       1.0000    0.86600   0.72470   0.97690   Biso      1.000     H          0.149836  
         H63       1.0000    0.49670   0.81160   0.97010   Biso      1.000     H          0.126734  
         H64       1.0000    0.99070   0.33850   0.09240   Biso      1.000     H          0.122666  
         O1        1.0000    0.82270   0.07470   0.48630   Biso      1.000     O          -0.316464           
         O2        1.0000    0.95200   0.00380   0.78860   Biso      1.000     O          -0.65129  
         O3        1.0000    0.62080   0.14170   0.50510   Biso      1.000     O          -0.532238           
         O4        1.0000    0.89370   0.23690   0.54730   Biso      1.000     O          -0.524538           
         O5        1.0000    0.12760   0.12270   0.52300   Biso      1.000     O          -0.135035           
         O6        1.0000    0.47070   0.40460   0.93550   Biso      1.000     O          -0.147865           
         O7        1.0000    0.90490   0.14030   0.23920   Biso      1.000     O          -0.694633           
         O8        1.0000    0.50410   0.31770   0.66780   Biso      1.000     O          -0.533462           
         O9        1.0000    0.86810   0.40480   0.72420   Biso      1.000     O          -0.135383           
         O10       1.0000    0.78220   0.80460   0.78910   Biso      1.000     O          -0.768799           
         O11       1.0000    0.70030   0.96900   0.77210   Biso      1.000     O          -0.745024           
         O12       1.0000    0.68240   0.10910   0.26590   Biso      1.000     O          -0.681911           
         O13       1.0000    0.85950   0.20810   0.12580   Biso      1.000     O          -0.691779           
         O14       1.0000    0.57300   0.71330   0.80040   Biso      1.000     O          -0.606685           
         O15       1.0000    0.06620   0.64940   0.07880   Biso      1.000     O          -0.533918           
         O16       1.0000    0.90300   0.69490   0.14270   Biso      1.000     O          -0.526239           
         O17       1.0000    0.78910   0.60000   0.03210   Biso      1.000     O          -0.322283           
         O18       1.0000    0.49250   0.99260   0.13640   Biso      1.000     O          -0.63105  
         O19       1.0000    0.71770   0.98010   0.12630   Biso      1.000     O          -0.736436           
         O20       1.0000    0.88310   0.84580   0.92380   Biso      1.000     O          -0.698988           
         O21       1.0000    0.66890   0.88500   0.90760   Biso      1.000     O          -0.715809           
         O22       1.0000    0.63320   0.61070   0.26450   Biso      1.000     O          -0.53591  
         O23       1.0000    0.36130   0.59510   0.22220   Biso      1.000     O          -0.322633           
         O24       1.0000    0.21780   0.19540   0.21090   Biso      1.000     O          -0.768799           
         O25       1.0000    0.52930   0.59540   0.06450   Biso      1.000     O          -0.147865           
         O26       1.0000    0.42700   0.28670   0.19960   Biso      1.000     O          -0.606685           
         O27       1.0000    0.55430   0.24060   0.31180   Biso      1.000     O          -0.8269   
         O28       1.0000    0.69030   0.23970   0.17650   Biso      1.000     O          -0.670639           
         O29       1.0000    0.44570   0.75940   0.68820   Biso      1.000     O          -0.8269   
         O30       1.0000    0.49590   0.68230   0.33220   Biso      1.000     O          -0.533462           
         O31       1.0000    0.36680   0.38930   0.73550   Biso      1.000     O          -0.53591  
         O32       1.0000    0.13190   0.59520   0.27580   Biso      1.000     O          -0.135383           
         O33       1.0000    0.09510   0.85970   0.76080   Biso      1.000     O          -0.694633           
         O34       1.0000    0.31760   0.89090   0.73410   Biso      1.000     O          -0.681911           
         O35       1.0000    0.87240   0.87730   0.47700   Biso      1.000     O          -0.135035           
         O36       1.0000    0.63870   0.40490   0.77780   Biso      1.000     O          -0.322633           
         O37       1.0000    0.10630   0.76310   0.45270   Biso      1.000     O          -0.524538           
         O38       1.0000    0.37920   0.85830   0.49490   Biso      1.000     O          -0.532238           
         O39       1.0000    0.04800   0.99620   0.21140   Biso      1.000     O          -0.65129  
         O40       1.0000    0.29970   0.03100   0.22790   Biso      1.000     O          -0.745024           
         O41       1.0000    0.17730   0.92530   0.51370   Biso      1.000     O          -0.316465           
         O42       1.0000    0.30970   0.76030   0.82350   Biso      1.000     O          -0.670639           
         O43       1.0000    0.93380   0.35060   0.92120   Biso      1.000     O          -0.533918           
         O44       1.0000    0.09700   0.30510   0.85730   Biso      1.000     O          -0.526239           
         O45       1.0000    0.21090   0.40000   0.96790   Biso      1.000     O          -0.322283           
         O46       1.0000    0.50750   0.00740   0.86360   Biso      1.000     O          -0.63105  
         O47       1.0000    0.28230   0.01990   0.87370   Biso      1.000     O          -0.736436           
         O48       1.0000    0.11690   0.15420   0.07620   Biso      1.000     O          -0.698988           
         O49       1.0000    0.14050   0.79190   0.87420   Biso      1.000     O          -0.691779           
         O50       1.0000    0.33110   0.11500   0.09240   Biso      1.000     O          -0.715809           
         Pr1       1.0000    0.03597   0.91253   0.85751   Biso      1.000     Pr          2.205365  
         Pr2       1.0000    0.47746   0.13809   0.19810   Biso      1.000     Pr          2.093489  
         Pr3       1.0000    0.96403   0.08747   0.14249   Biso      1.000     Pr          2.205365  
         Pr4       1.0000    0.52254   0.86191   0.80190   Biso      1.000     Pr          2.093489  
         S1        1.0000    0.07420   0.37221   0.90464   Biso      1.000     S          1.139355  
         S2        1.0000    0.47850   0.34373   0.72817   Biso      1.000     S          1.132081  
         S3        1.0000    0.92580   0.62779   0.09536   Biso      1.000     S          1.139355  
         S4        1.0000    0.52150   0.65627   0.27183   Biso      1.000     S          1.132081  
         S5        1.0000    0.22240   0.84961   0.46792   Biso      1.000     S          1.12262   
         S6        1.0000    0.77760   0.15039   0.53208   Biso      1.000     S          1.122621 