
##########################################################################
#               Crystallographic Information Format file
#               Produced by PyCifRW module
#
#  This is a CIF file.  CIF has been adopted by the International
#  Union of Crystallography as the standard for data archiving and
#  transmission.
#
#  For information on this file format, follow the CIF links at
#  http://www.iucr.org
##########################################################################

data_image0

_cell_length_a                          9.2574
_cell_length_b                          15.601
_cell_length_c                          22.274
_cell_angle_alpha                       102.19
_cell_angle_beta                        101.58
_cell_angle_gamma                       104.32
_symmetry_space_group_name_H-M          'P 1'
_symmetry_int_tables_number             1
loop_
  _symmetry_equiv_pos_as_xyz
         'x, y, z' 
loop_
  _atom_site_label
  _atom_site_occupancy
  _atom_site_fract_x
  _atom_site_fract_y
  _atom_site_fract_z
  _atom_site_thermal_displace_type
  _atom_site_B_iso_or_equiv
  _atom_site_type_symbol
  _atom_site_charge
         C1        1.0000    0.32770   0.23640   0.79220   Biso      1.000     C          -0.102167           
         C2        1.0000    0.91340   0.56170   0.72610   Biso      1.000     C          -0.215989           
         C3        1.0000    0.87580   0.64120   0.74200   Biso      1.000     C          -0.072709           
         C4        1.0000    0.98370   0.39110   0.69450   Biso      1.000     C          -0.248143           
         C5        1.0000    0.44480   0.25170   0.76270   Biso      1.000     C          -0.082944           
         C6        1.0000    0.30920   0.16630   0.82090   Biso      1.000     C          -0.082142           
         C7        1.0000    0.40840   0.11300   0.82150   Biso      1.000     C          -0.021105           
         C8        1.0000    0.52480   0.12970   0.79190   Biso      1.000     C          -0.083188           
         C9        1.0000    0.54560   0.19960   0.76220   Biso      1.000     C          -0.090346           
         C10       1.0000    0.38970   0.03600   0.85430   Biso      1.000     C          0.679156  
         C11       1.0000    0.82600   0.12300   0.27680   Biso      1.000     C          0.675079  
         C12       1.0000    0.90880   0.12400   0.34240   Biso      1.000     C          -0.047508           
         C13       1.0000    0.06970   0.14960   0.36130   Biso      1.000     C          -0.076278           
         C14       1.0000    0.14560   0.14950   0.42050   Biso      1.000     C          -0.210788           
         C15       1.0000    0.06460   0.12530   0.46370   Biso      1.000     C          0.185717  
         C16       1.0000    0.90400   0.10220   0.44400   Biso      1.000     C          0.161476  
         C17       1.0000    0.83500   0.48130   0.73810   Biso      1.000     C          0.190603  
         C18       1.0000    0.82660   0.09990   0.38420   Biso      1.000     C          -0.201091           
         C19       1.0000    0.71570   0.48550   0.76590   Biso      1.000     C          0.150303  
         C20       1.0000    0.75560   0.64350   0.77120   Biso      1.000     C          -0.042951           
         C21       1.0000    0.21190   0.74520   0.85520   Biso      1.000     C          0.681952  
         C22       1.0000    0.17810   0.65080   0.86910   Biso      1.000     C          -0.023973           
         C23       1.0000    0.06100   0.62450   0.89630   Biso      1.000     C          -0.087302           
         C24       1.0000    0.02530   0.54010   0.90770   Biso      1.000     C          -0.095859           
         C25       1.0000    0.10640   0.48070   0.88960   Biso      1.000     C          -0.081131           
         C26       1.0000    0.22510   0.50600   0.86210   Biso      1.000     C          -0.091554           
         C27       1.0000    0.26120   0.59160   0.85160   Biso      1.000     C          -0.08534  
         C28       1.0000    0.27140   0.33210   0.98160   Biso      1.000     C          0.161751  
         C29       1.0000    0.21760   0.27050   0.01350   Biso      1.000     C          -0.202536           
         C30       1.0000    0.44260   0.22400   0.01800   Biso      1.000     C          -0.063785           
         C31       1.0000    0.49580   0.28360   0.98500   Biso      1.000     C          -0.208918           
         C32       1.0000    0.41420   0.34130   0.96700   Biso      1.000     C          0.178707  
         C33       1.0000    0.24760   0.15390   0.07110   Biso      1.000     C          0.655953  
         C34       1.0000    0.60620   0.42070   0.92380   Biso      1.000     C          -0.26007  
         C35       1.0000    0.70600   0.72700   0.78730   Biso      1.000     C          0.620743  
         C36       1.0000    0.67540   0.56340   0.78240   Biso      1.000     C          -0.193744           
         C37       1.0000    0.29030   0.15300   0.54740   Biso      1.000     C          -0.257905           
         C38       1.0000    0.78240   0.10460   0.59850   Biso      1.000     C          -0.070077           
         C39       1.0000    0.92610   0.11860   0.63840   Biso      1.000     C          -0.094331           
         C40       1.0000    0.29400   0.27300   0.21270   Biso      1.000     C          0.620743  
         C41       1.0000    0.24440   0.35650   0.22880   Biso      1.000     C          -0.042949           
         C42       1.0000    0.32460   0.43660   0.21760   Biso      1.000     C          -0.193761           
         C43       1.0000    0.28430   0.51450   0.23410   Biso      1.000     C          0.150316  
         C44       1.0000    0.16500   0.51870   0.26190   Biso      1.000     C          0.190605  
         C45       1.0000    0.08660   0.43830   0.27390   Biso      1.000     C          -0.21599  
         C46       1.0000    0.12420   0.35880   0.25800   Biso      1.000     C          -0.072709           
         C47       1.0000    0.01630   0.60890   0.30550   Biso      1.000     C          -0.248143           
         C48       1.0000    0.55520   0.74830   0.23730   Biso      1.000     C          -0.08295  
         C49       1.0000    0.67230   0.76360   0.20780   Biso      1.000     C          -0.102161           
         C50       1.0000    0.69080   0.83370   0.17910   Biso      1.000     C          -0.082143           
         C51       1.0000    0.59160   0.88700   0.17850   Biso      1.000     C          -0.021105           
         C52       1.0000    0.47520   0.87030   0.20810   Biso      1.000     C          -0.083188           
         C53       1.0000    0.45440   0.80040   0.23780   Biso      1.000     C          -0.090345           
         C54       1.0000    0.61030   0.96400   0.14570   Biso      1.000     C          0.679156  
         C55       1.0000    0.39380   0.57930   0.07620   Biso      1.000     C          -0.26007  
         C56       1.0000    0.75240   0.84610   0.92890   Biso      1.000     C          0.655954  
         C57       1.0000    0.58580   0.65870   0.03300   Biso      1.000     C          0.178707  
         C58       1.0000    0.50420   0.71640   0.01500   Biso      1.000     C          -0.208931           
         C59       1.0000    0.93480   0.08300   0.69140   Biso      1.000     C          -0.076018           
         C60       1.0000    0.80250   0.03530   0.70290   Biso      1.000     C          -0.021926           
         C61       1.0000    0.66020   0.02110   0.66080   Biso      1.000     C          -0.090452           
         C62       1.0000    0.65010   0.05400   0.60930   Biso      1.000     C          -0.090426           
         C63       1.0000    0.81000   0.99440   0.75880   Biso      1.000     C          0.686437  
         C64       1.0000    0.78810   0.25480   0.14480   Biso      1.000     C          0.681952  
         C65       1.0000    0.82190   0.34920   0.13090   Biso      1.000     C          -0.023972           
         C66       1.0000    0.19000   0.00560   0.24120   Biso      1.000     C          0.686438  
         C67       1.0000    0.93900   0.37550   0.10370   Biso      1.000     C          -0.087303           
         C68       1.0000    0.89360   0.51930   0.11040   Biso      1.000     C          -0.081134           
         C69       1.0000    0.77490   0.49400   0.13790   Biso      1.000     C          -0.091553           
         C70       1.0000    0.73880   0.40840   0.14840   Biso      1.000     C          -0.08534  
         C71       1.0000    0.72860   0.66790   0.01840   Biso      1.000     C          0.161751  
         C72       1.0000    0.78240   0.72950   0.98650   Biso      1.000     C          -0.202535           
         C73       1.0000    0.69470   0.78370   0.96660   Biso      1.000     C          -0.03865  
         C74       1.0000    0.55740   0.77600   0.98200   Biso      1.000     C          -0.063761           
         C75       1.0000    0.97470   0.45990   0.09230   Biso      1.000     C          -0.095856           
         C76       1.0000    0.34990   0.94600   0.39070   Biso      1.000     C          -0.090453           
         C77       1.0000    0.30530   0.21630   0.03340   Biso      1.000     C          -0.038638           
         C78       1.0000    0.19750   0.96470   0.29710   Biso      1.000     C          -0.021934           
         C79       1.0000    0.33980   0.97890   0.33920   Biso      1.000     C          -0.090425           
         C80       1.0000    0.09120   0.87600   0.65760   Biso      1.000     C          -0.047507           
         C81       1.0000    0.93030   0.85040   0.63870   Biso      1.000     C          -0.076278           
         C82       1.0000    0.85440   0.85050   0.57950   Biso      1.000     C          -0.210787           
         C83       1.0000    0.93540   0.87470   0.53630   Biso      1.000     C          0.185717  
         C84       1.0000    0.17400   0.87700   0.72320   Biso      1.000     C          0.675079  
         C85       1.0000    0.17340   0.90010   0.61580   Biso      1.000     C          -0.201096           
         C86       1.0000    0.70970   0.84700   0.45260   Biso      1.000     C          -0.257905           
         C87       1.0000    0.21760   0.89540   0.40150   Biso      1.000     C          -0.070072           
         C88       1.0000    0.07390   0.88140   0.36160   Biso      1.000     C          -0.094332           
         C89       1.0000    0.09600   0.89780   0.55600   Biso      1.000     C          0.16148   
         C90       1.0000    0.06520   0.91700   0.30860   Biso      1.000     C          -0.076011           
         H1        1.0000    0.68430   0.45330   0.96310   Biso      1.000     H          0.132133  
         H2        1.0000    0.62140   0.36270   0.90690   Biso      1.000     H          0.135364  
         H3        1.0000    0.61310   0.45650   0.89380   Biso      1.000     H          0.147071  
         H4        1.0000    0.59420   0.56310   0.80110   Biso      1.000     H          0.148476  
         H5        1.0000    0.99340   0.56120   0.70670   Biso      1.000     H          0.135942  
         H6        1.0000    0.07700   0.44080   0.71580   Biso      1.000     H          0.131265  
         H7        1.0000    0.00330   0.33370   0.69530   Biso      1.000     H          0.150668  
         H8        1.0000    0.26220   0.27290   0.79280   Biso      1.000     H          0.126822  
         H9        1.0000    0.22880   0.15440   0.84010   Biso      1.000     H          0.118756  
         H10       1.0000    0.58850   0.28550   0.97430   Biso      1.000     H          0.136493  
         H11       1.0000    0.59070   0.09340   0.79170   Biso      1.000     H          0.119812  
         H12       1.0000    0.93000   0.69400   0.73350   Biso      1.000     H          0.124537  
         H13       1.0000    0.50170   0.18730   0.03050   Biso      1.000     H          0.123374  
         H14       1.0000    0.44580   0.95740   0.41880   Biso      1.000     H          0.122236  
         H15       1.0000    0.34070   0.60960   0.83290   Biso      1.000     H          0.129972  
         H16       1.0000    0.28030   0.46560   0.85070   Biso      1.000     H          0.120991  
         H17       1.0000    0.94730   0.52310   0.92730   Biso      1.000     H          0.121338  
         H18       1.0000    0.00490   0.66450   0.90730   Biso      1.000     H          0.119705  
         H19       1.0000    0.62520   0.21130   0.74260   Biso      1.000     H          0.125978  
         H20       1.0000    0.42970   0.01170   0.33160   Biso      1.000     H          0.11699   
         H21       1.0000    0.96940   0.90810   0.28130   Biso      1.000     H          0.119508  
         H22       1.0000    0.98450   0.84890   0.36970   Biso      1.000     H          0.124892  
         H23       1.0000    0.68100   0.85450   0.41060   Biso      1.000     H          0.143246  
         H24       1.0000    0.66590   0.88250   0.48030   Biso      1.000     H          0.128349  
         H25       1.0000    0.67140   0.78320   0.45090   Biso      1.000     H          0.142885  
         H26       1.0000    0.28100   0.91780   0.62800   Biso      1.000     H          0.143902  
         H27       1.0000    0.74690   0.83410   0.56790   Biso      1.000     H          0.136056  
         H28       1.0000    0.87400   0.83310   0.66670   Biso      1.000     H          0.121809  
         H29       1.0000    0.12180   0.26490   0.02200   Biso      1.000     H          0.149258  
         H30       1.0000    0.12600   0.16690   0.33330   Biso      1.000     H          0.121809  
         H31       1.0000    0.94940   0.39220   0.65120   Biso      1.000     H          0.140763  
         H32       1.0000    0.71900   0.08220   0.37200   Biso      1.000     H          0.143902  
         H33       1.0000    0.25310   0.16590   0.43210   Biso      1.000     H          0.136056  
         H34       1.0000    0.40930   0.90660   0.20830   Biso      1.000     H          0.119812  
         H35       1.0000    0.77120   0.84560   0.15990   Biso      1.000     H          0.118756  
         H36       1.0000    0.73780   0.72710   0.20720   Biso      1.000     H          0.126822  
         H37       1.0000    0.99670   0.66630   0.30470   Biso      1.000     H          0.150668  
         H38       1.0000    0.92300   0.55920   0.28420   Biso      1.000     H          0.131265  
         H39       1.0000    0.05060   0.60780   0.34880   Biso      1.000     H          0.140763  
         H40       1.0000    0.07000   0.30600   0.26650   Biso      1.000     H          0.124537  
         H41       1.0000    0.00660   0.43880   0.29330   Biso      1.000     H          0.135942  
         H42       1.0000    0.40580   0.43690   0.19890   Biso      1.000     H          0.148478  
         H43       1.0000    0.38690   0.54350   0.10620   Biso      1.000     H          0.147071  
         H44       1.0000    0.37860   0.63730   0.09310   Biso      1.000     H          0.135364  
         H45       1.0000    0.31570   0.54670   0.03690   Biso      1.000     H          0.132133  
         H46       1.0000    0.37480   0.78870   0.25740   Biso      1.000     H          0.125978  
         H47       1.0000    0.32860   0.21680   0.54910   Biso      1.000     H          0.142885  
         H48       1.0000    0.33410   0.11750   0.51970   Biso      1.000     H          0.128349  
         H49       1.0000    0.31900   0.14550   0.58940   Biso      1.000     H          0.143246  
         H50       1.0000    0.01550   0.15110   0.63030   Biso      1.000     H          0.124892  
         H51       1.0000    0.41150   0.71450   0.02570   Biso      1.000     H          0.136494  
         H52       1.0000    0.57030   0.98830   0.66840   Biso      1.000     H          0.116992  
         H53       1.0000    0.55420   0.04260   0.58120   Biso      1.000     H          0.122234  
         H54       1.0000    0.03060   0.09190   0.71870   Biso      1.000     H          0.119508  
         H55       1.0000    0.05270   0.47690   0.07270   Biso      1.000     H          0.121338  
         H56       1.0000    0.71970   0.53440   0.14930   Biso      1.000     H          0.120991  
         H57       1.0000    0.65930   0.39040   0.16710   Biso      1.000     H          0.129972  
         H58       1.0000    0.87820   0.73510   0.97800   Biso      1.000     H          0.149258  
         H59       1.0000    0.49830   0.81270   0.96950   Biso      1.000     H          0.123373  
         H60       1.0000    0.99510   0.33550   0.09270   Biso      1.000     H          0.119705  
         O1        1.0000    0.61750   0.14370   0.50480   Biso      1.000     O          -0.539458           
         O2        1.0000    0.89010   0.23620   0.54780   Biso      1.000     O          -0.530009           
         O3        1.0000    0.81700   0.07370   0.48640   Biso      1.000     O          -0.320773           
         O4        1.0000    0.12570   0.12220   0.52380   Biso      1.000     O          -0.13675  
         O5        1.0000    0.68360   0.10910   0.26490   Biso      1.000     O          -0.705261           
         O6        1.0000    0.36480   0.59570   0.22070   Biso      1.000     O          -0.321859           
         O7        1.0000    0.50290   0.31880   0.66870   Biso      1.000     O          -0.532456           
         O8        1.0000    0.86620   0.40090   0.72640   Biso      1.000     O          -0.134573           
         O9        1.0000    0.79520   0.80590   0.78960   Biso      1.000     O          -0.762201           
         O10       1.0000    0.45460   0.40490   0.93560   Biso      1.000     O          -0.14108  
         O11       1.0000    0.93970   0.99810   0.78987   Biso      1.000     O          -0.6764   
         O12       1.0000    0.90620   0.13690   0.23803   Biso      1.000     O          -0.698954           
         O13       1.0000    0.68490   0.96210   0.77140   Biso      1.000     O          -0.733213           
         O14       1.0000    0.88590   0.85340   0.92200   Biso      1.000     O          -0.717145           
         O15       1.0000    0.68750   0.23630   0.17490   Biso      1.000     O          -0.700126           
         O16       1.0000    0.08530   0.64930   0.08220   Biso      1.000     O          -0.540391           
         O17       1.0000    0.91090   0.69440   0.14210   Biso      1.000     O          -0.518328           
         O18       1.0000    0.80980   0.60570   0.03180   Biso      1.000     O          -0.330544           
         O19       1.0000    0.50430   0.00040   0.13776   Biso      1.000     O          -0.642659           
         O20       1.0000    0.73050   0.98350   0.12710   Biso      1.000     O          -0.735857           
         O21       1.0000    0.66310   0.88620   0.90371   Biso      1.000     O          -0.710286           
         O22       1.0000    0.63600   0.60840   0.26300   Biso      1.000     O          -0.538018           
         O23       1.0000    0.20480   0.19410   0.21040   Biso      1.000     O          -0.762201           
         O24       1.0000    0.54540   0.59510   0.06440   Biso      1.000     O          -0.14108  
         O25       1.0000    0.42220   0.28040   0.20030   Biso      1.000     O          -0.637552           
         O26       1.0000    0.57780   0.71960   0.79970   Biso      1.000     O          -0.637552           
         O27       1.0000    0.86360   0.20470   0.12658   Biso      1.000     O          -0.690441           
         O28       1.0000    0.63520   0.40430   0.77930   Biso      1.000     O          -0.321858           
         O29       1.0000    0.49710   0.68120   0.33130   Biso      1.000     O          -0.532456           
         O30       1.0000    0.33690   0.11380   0.09629   Biso      1.000     O          -0.710286           
         O31       1.0000    0.13380   0.59910   0.27360   Biso      1.000     O          -0.134573           
         O32       1.0000    0.09380   0.86310   0.76197   Biso      1.000     O          -0.698954           
         O33       1.0000    0.31640   0.89090   0.73510   Biso      1.000     O          -0.705261           
         O34       1.0000    0.36400   0.39160   0.73700   Biso      1.000     O          -0.538018           
         O35       1.0000    0.18300   0.92630   0.51360   Biso      1.000     O          -0.320773           
         O36       1.0000    0.10990   0.76380   0.45220   Biso      1.000     O          -0.530009           
         O37       1.0000    0.38250   0.85630   0.49520   Biso      1.000     O          -0.539458           
         O38       1.0000    0.06030   0.00190   0.21013   Biso      1.000     O          -0.676399           
         O39       1.0000    0.87430   0.87780   0.47620   Biso      1.000     O          -0.13675  
         O40       1.0000    0.13640   0.79530   0.87342   Biso      1.000     O          -0.690441           
         O41       1.0000    0.31250   0.76370   0.82510   Biso      1.000     O          -0.700127           
         O42       1.0000    0.91470   0.35070   0.91780   Biso      1.000     O          -0.540391           
         O43       1.0000    0.08910   0.30560   0.85790   Biso      1.000     O          -0.518328           
         O44       1.0000    0.19020   0.39430   0.96820   Biso      1.000     O          -0.330544           
         O45       1.0000    0.49570   0.99960   0.86224   Biso      1.000     O          -0.642659           
         O46       1.0000    0.26950   0.01650   0.87290   Biso      1.000     O          -0.735857           
         O47       1.0000    0.11410   0.14660   0.07800   Biso      1.000     O          -0.717145           
         O48       1.0000    0.31510   0.03790   0.22860   Biso      1.000     O          -0.733213           
         S1        1.0000    0.22670   0.84958   0.46759   Biso      1.000     S          1.130915  
         S2        1.0000    0.06080   0.37061   0.90339   Biso      1.000     S          1.142469  
         S3        1.0000    0.77330   0.15042   0.53241   Biso      1.000     S          1.130915  
         S4        1.0000    0.93920   0.62939   0.09661   Biso      1.000     S          1.142469  
         S5        1.0000    0.52410   0.65545   0.27053   Biso      1.000     S          1.127713  
         S6        1.0000    0.47590   0.34455   0.72947   Biso      1.000     S          1.127712  
         Tb1       1.0000    0.96819   0.08811   0.14418   Biso      1.000     Tb          2.206903  
         Tb2       1.0000    0.48475   0.13942   0.19783   Biso      1.000     Tb          2.131194  
         Tb3       1.0000    0.03181   0.91189   0.85582   Biso      1.000     Tb          2.206903  
         Tb4       1.0000    0.51525   0.86058   0.80217   Biso      1.000     Tb          2.131194 