
##########################################################################
#               Crystallographic Information Format file
#               Produced by PyCifRW module
#
#  This is a CIF file.  CIF has been adopted by the International
#  Union of Crystallography as the standard for data archiving and
#  transmission.
#
#  For information on this file format, follow the CIF links at
#  http://www.iucr.org
##########################################################################

data_image0

_cell_length_a                          9.1999
_cell_length_b                          15.578
_cell_length_c                          22.142
_cell_angle_alpha                       102.86
_cell_angle_beta                        101.55
_cell_angle_gamma                       104.52
_symmetry_space_group_name_H-M          'P 1'
_symmetry_int_tables_number             1
loop_
  _symmetry_equiv_pos_as_xyz
         'x, y, z' 
loop_
  _atom_site_label
  _atom_site_occupancy
  _atom_site_fract_x
  _atom_site_fract_y
  _atom_site_fract_z
  _atom_site_thermal_displace_type
  _atom_site_B_iso_or_equiv
  _atom_site_type_symbol
  _atom_site_charge
         C1        1.0000    0.32460   0.23570   0.79230   Biso      1.000     C          -0.104152           
         C2        1.0000    0.16840   0.87670   0.72420   Biso      1.000     C          0.66883   
         C3        1.0000    0.49950   0.29100   0.98490   Biso      1.000     C          -0.21524  
         C4        1.0000    0.40790   0.34340   0.96450   Biso      1.000     C          0.180443  
         C5        1.0000    0.25180   0.15270   0.06770   Biso      1.000     C          0.651106  
         C6        1.0000    0.59880   0.42810   0.92430   Biso      1.000     C          -0.26018  
         C7        1.0000    0.70450   0.72970   0.78960   Biso      1.000     C          0.615151  
         C8        1.0000    0.75360   0.64410   0.77160   Biso      1.000     C          -0.036853           
         C9        1.0000    0.67380   0.56440   0.78410   Biso      1.000     C          -0.203511           
         C10       1.0000    0.09040   0.87860   0.65910   Biso      1.000     C          -0.047944           
         C11       1.0000    0.71520   0.48520   0.76710   Biso      1.000     C          0.157515  
         C12       1.0000    0.91010   0.56410   0.72530   Biso      1.000     C          -0.207798           
         C13       1.0000    0.87370   0.64500   0.74190   Biso      1.000     C          -0.079831           
         C14       1.0000    0.98490   0.39420   0.69220   Biso      1.000     C          -0.253931           
         C15       1.0000    0.44530   0.25140   0.76280   Biso      1.000     C          -0.083279           
         C16       1.0000    0.30550   0.16790   0.82220   Biso      1.000     C          -0.082388           
         C17       1.0000    0.40690   0.11360   0.82250   Biso      1.000     C          -0.02228  
         C18       1.0000    0.52700   0.13210   0.79300   Biso      1.000     C          -0.077908           
         C19       1.0000    0.54490   0.19930   0.76200   Biso      1.000     C          -0.087098           
         C20       1.0000    0.83450   0.48420   0.73660   Biso      1.000     C          0.176728  
         C21       1.0000    0.92380   0.85130   0.63820   Biso      1.000     C          -0.079253           
         C22       1.0000    0.85070   0.85120   0.57940   Biso      1.000     C          -0.20168  
         C23       1.0000    0.93600   0.87630   0.53670   Biso      1.000     C          0.184437  
         C24       1.0000    0.21230   0.26840   0.01030   Biso      1.000     C          -0.205965           
         C25       1.0000    0.26150   0.33060   0.97900   Biso      1.000     C          0.162983  
         C26       1.0000    0.25420   0.58980   0.85050   Biso      1.000     C          -0.08622  
         C27       1.0000    0.21730   0.50210   0.85950   Biso      1.000     C          -0.095774           
         C28       1.0000    0.09600   0.47760   0.88750   Biso      1.000     C          -0.082395           
         C29       1.0000    0.01570   0.53880   0.90610   Biso      1.000     C          -0.093409           
         C30       1.0000    0.05370   0.62470   0.89640   Biso      1.000     C          -0.086512           
         C31       1.0000    0.17230   0.65100   0.86920   Biso      1.000     C          -0.024383           
         C32       1.0000    0.20570   0.74620   0.85580   Biso      1.000     C          0.678267  
         C33       1.0000    0.19080   0.00430   0.24000   Biso      1.000     C          0.679292  
         C34       1.0000    0.35410   0.94470   0.39110   Biso      1.000     C          -0.090789           
         C35       1.0000    0.34170   0.97810   0.33820   Biso      1.000     C          -0.090052           
         C36       1.0000    0.19940   0.96540   0.29620   Biso      1.000     C          -0.015439           
         C37       1.0000    0.06430   0.91800   0.30770   Biso      1.000     C          -0.077137           
         C38       1.0000    0.07440   0.88210   0.36070   Biso      1.000     C          -0.089655           
         C39       1.0000    0.21740   0.89530   0.40220   Biso      1.000     C          -0.072486           
         C40       1.0000    0.70890   0.85270   0.45300   Biso      1.000     C          -0.257139           
         C41       1.0000    0.17470   0.90210   0.61820   Biso      1.000     C          -0.197959           
         C42       1.0000    0.09900   0.90210   0.55640   Biso      1.000     C          0.151605  
         C43       1.0000    0.39000   0.03840   0.85610   Biso      1.000     C          0.68237   
         C44       1.0000    0.83160   0.12330   0.27580   Biso      1.000     C          0.66883   
         C45       1.0000    0.90960   0.12140   0.34090   Biso      1.000     C          -0.047944           
         C46       1.0000    0.07620   0.14870   0.36180   Biso      1.000     C          -0.079253           
         C47       1.0000    0.50050   0.70900   0.01510   Biso      1.000     C          -0.21524  
         C48       1.0000    0.59210   0.65660   0.03550   Biso      1.000     C          0.180444  
         C49       1.0000    0.74820   0.84730   0.93230   Biso      1.000     C          0.651106  
         C50       1.0000    0.40120   0.57190   0.07570   Biso      1.000     C          -0.26018  
         C51       1.0000    0.29550   0.27030   0.21040   Biso      1.000     C          0.615151  
         C52       1.0000    0.24640   0.35590   0.22840   Biso      1.000     C          -0.036853           
         C53       1.0000    0.32620   0.43560   0.21590   Biso      1.000     C          -0.203511           
         C54       1.0000    0.28480   0.51480   0.23290   Biso      1.000     C          0.157516  
         C55       1.0000    0.16550   0.51580   0.26340   Biso      1.000     C          0.176722  
         C56       1.0000    0.08990   0.43590   0.27470   Biso      1.000     C          -0.207792           
         C57       1.0000    0.12630   0.35500   0.25810   Biso      1.000     C          -0.079832           
         C58       1.0000    0.01510   0.60580   0.30780   Biso      1.000     C          -0.253931           
         C59       1.0000    0.55470   0.74860   0.23720   Biso      1.000     C          -0.083279           
         C60       1.0000    0.67540   0.76430   0.20770   Biso      1.000     C          -0.104152           
         C61       1.0000    0.69450   0.83210   0.17780   Biso      1.000     C          -0.082388           
         C62       1.0000    0.59310   0.88640   0.17750   Biso      1.000     C          -0.02228  
         C63       1.0000    0.47300   0.86790   0.20700   Biso      1.000     C          -0.077908           
         C64       1.0000    0.45510   0.80070   0.23800   Biso      1.000     C          -0.087098           
         C65       1.0000    0.61000   0.96160   0.14390   Biso      1.000     C          0.68237   
         C66       1.0000    0.55170   0.77270   0.98350   Biso      1.000     C          -0.058111           
         C67       1.0000    0.30550   0.21550   0.03020   Biso      1.000     C          -0.041019           
         C68       1.0000    0.69450   0.78450   0.96980   Biso      1.000     C          -0.041022           
         C69       1.0000    0.73850   0.66940   0.02100   Biso      1.000     C          0.162966  
         C70       1.0000    0.14930   0.14880   0.42060   Biso      1.000     C          -0.20168  
         C71       1.0000    0.06400   0.12370   0.46330   Biso      1.000     C          0.184438  
         C72       1.0000    0.90100   0.09790   0.44360   Biso      1.000     C          0.151605  
         C73       1.0000    0.82530   0.09790   0.38180   Biso      1.000     C          -0.197959           
         C74       1.0000    0.29110   0.14730   0.54700   Biso      1.000     C          -0.257139           
         C75       1.0000    0.78260   0.10470   0.59780   Biso      1.000     C          -0.072488           
         C76       1.0000    0.92560   0.11790   0.63930   Biso      1.000     C          -0.089654           
         C77       1.0000    0.93570   0.08200   0.69230   Biso      1.000     C          -0.07714  
         C78       1.0000    0.80060   0.03460   0.70380   Biso      1.000     C          -0.015437           
         C79       1.0000    0.65830   0.02190   0.66180   Biso      1.000     C          -0.090055           
         C80       1.0000    0.64590   0.05530   0.60890   Biso      1.000     C          -0.090786           
         C81       1.0000    0.80920   0.99570   0.76000   Biso      1.000     C          0.679292  
         C82       1.0000    0.79430   0.25380   0.14420   Biso      1.000     C          0.678267  
         C83       1.0000    0.82770   0.34900   0.13080   Biso      1.000     C          -0.024389           
         C84       1.0000    0.94630   0.37530   0.10360   Biso      1.000     C          -0.086507           
         C85       1.0000    0.98430   0.46120   0.09390   Biso      1.000     C          -0.093409           
         C86       1.0000    0.90400   0.52240   0.11250   Biso      1.000     C          -0.082394           
         C87       1.0000    0.78270   0.49790   0.14050   Biso      1.000     C          -0.095775           
         C88       1.0000    0.74580   0.41020   0.14950   Biso      1.000     C          -0.086219           
         C89       1.0000    0.78770   0.73160   0.98970   Biso      1.000     C          -0.205947           
         C90       1.0000    0.44830   0.22730   0.01650   Biso      1.000     C          -0.058112           
         Dy1       1.0000    0.51411   0.86223   0.80432   Biso      1.000     Dy          2.127515  
         Dy2       1.0000    0.02917   0.91285   0.85774   Biso      1.000     Dy          2.208147  
         Dy3       1.0000    0.48589   0.13777   0.19568   Biso      1.000     Dy          2.127516  
         Dy4       1.0000    0.97083   0.08715   0.14226   Biso      1.000     Dy          2.208147  
         H1        1.0000    0.40340   0.90200   0.20560   Biso      1.000     H          0.121682  
         H2        1.0000    0.51040   0.19200   0.02870   Biso      1.000     H          0.129589  
         H3        1.0000    0.59690   0.29900   0.97700   Biso      1.000     H          0.139104  
         H4        1.0000    0.67560   0.44720   0.96500   Biso      1.000     H          0.129864  
         H5        1.0000    0.60790   0.37330   0.89730   Biso      1.000     H          0.133149  
         H6        1.0000    0.61550   0.47670   0.90380   Biso      1.000     H          0.144976  
         H7        1.0000    0.98990   0.56370   0.70540   Biso      1.000     H          0.133375  
         H8        1.0000    0.11560   0.26060   0.01890   Biso      1.000     H          0.150643  
         H9        1.0000    0.92740   0.69830   0.73370   Biso      1.000     H          0.12907   
         H10       1.0000    0.94900   0.39660   0.64900   Biso      1.000     H          0.13869   
         H11       1.0000    0.07900   0.44440   0.71430   Biso      1.000     H          0.127848  
         H12       1.0000    0.00510   0.33640   0.69120   Biso      1.000     H          0.149434  
         H13       1.0000    0.59350   0.56470   0.80370   Biso      1.000     H          0.148739  
         H14       1.0000    0.33450   0.60790   0.83180   Biso      1.000     H          0.131509  
         H15       1.0000    0.93600   0.52150   0.92510   Biso      1.000     H          0.119424  
         H16       1.0000    0.25750   0.27150   0.79160   Biso      1.000     H          0.125172  
         H17       1.0000    0.99860   0.66520   0.90850   Biso      1.000     H          0.11939   
         H18       1.0000    0.45120   0.95470   0.41870   Biso      1.000     H          0.12288   
         H19       1.0000    0.43250   0.01050   0.33050   Biso      1.000     H          0.11435   
         H20       1.0000    0.96740   0.90980   0.28060   Biso      1.000     H          0.123286  
         H21       1.0000    0.98370   0.84900   0.36810   Biso      1.000     H          0.12481   
         H22       1.0000    0.67990   0.85850   0.41030   Biso      1.000     H          0.144215  
         H23       1.0000    0.67020   0.89210   0.48120   Biso      1.000     H          0.126152  
         H24       1.0000    0.66510   0.78960   0.45230   Biso      1.000     H          0.143406  
         H25       1.0000    0.28300   0.91830   0.63110   Biso      1.000     H          0.142061  
         H26       1.0000    0.37730   0.79070   0.25900   Biso      1.000     H          0.124564  
         H27       1.0000    0.86560   0.83360   0.66560   Biso      1.000     H          0.12322   
         H28       1.0000    0.27160   0.46120   0.84720   Biso      1.000     H          0.125443  
         H29       1.0000    0.22590   0.15740   0.84230   Biso      1.000     H          0.121993  
         H30       1.0000    0.74230   0.83430   0.56670   Biso      1.000     H          0.138873  
         H31       1.0000    0.62270   0.20930   0.74100   Biso      1.000     H          0.124564  
         H32       1.0000    0.59660   0.09800   0.79440   Biso      1.000     H          0.121682  
         H33       1.0000    0.77410   0.84260   0.15770   Biso      1.000     H          0.121993  
         H34       1.0000    0.74250   0.72850   0.20840   Biso      1.000     H          0.125172  
         H35       1.0000    0.92100   0.55560   0.28570   Biso      1.000     H          0.127848  
         H36       1.0000    0.05100   0.60340   0.35100   Biso      1.000     H          0.13869   
         H37       1.0000    0.07260   0.30170   0.26630   Biso      1.000     H          0.12907   
         H38       1.0000    0.01010   0.43630   0.29460   Biso      1.000     H          0.133374  
         H39       1.0000    0.40650   0.43530   0.19630   Biso      1.000     H          0.148739  
         H40       1.0000    0.38450   0.52330   0.09620   Biso      1.000     H          0.144976  
         H41       1.0000    0.39210   0.62670   0.10270   Biso      1.000     H          0.133149  
         H42       1.0000    0.32440   0.55280   0.03500   Biso      1.000     H          0.129864  
         H43       1.0000    0.40310   0.70100   0.02300   Biso      1.000     H          0.139104  
         H44       1.0000    0.48960   0.80800   0.97130   Biso      1.000     H          0.129589  
         H45       1.0000    0.88440   0.73940   0.98110   Biso      1.000     H          0.150642  
         H46       1.0000    0.99490   0.66360   0.30880   Biso      1.000     H          0.149434  
         H47       1.0000    0.72840   0.53880   0.15280   Biso      1.000     H          0.125443  
         H48       1.0000    0.66550   0.39210   0.16820   Biso      1.000     H          0.131509  
         H49       1.0000    0.25770   0.16570   0.43330   Biso      1.000     H          0.138873  
         H50       1.0000    0.33490   0.21040   0.54770   Biso      1.000     H          0.143406  
         H51       1.0000    0.32980   0.10790   0.51880   Biso      1.000     H          0.126152  
         H52       1.0000    0.32010   0.14150   0.58970   Biso      1.000     H          0.144215  
         H53       1.0000    0.01630   0.15100   0.63190   Biso      1.000     H          0.12481   
         H54       1.0000    0.71700   0.08170   0.36890   Biso      1.000     H          0.142061  
         H55       1.0000    0.56750   0.98950   0.66950   Biso      1.000     H          0.11435   
         H56       1.0000    0.06400   0.47850   0.07490   Biso      1.000     H          0.119424  
         H57       1.0000    0.03260   0.09020   0.71940   Biso      1.000     H          0.123286  
         H58       1.0000    0.13440   0.16640   0.33440   Biso      1.000     H          0.12322   
         H59       1.0000    0.00140   0.33480   0.09150   Biso      1.000     H          0.11939   
         H60       1.0000    0.54880   0.04530   0.58130   Biso      1.000     H          0.122879  
         O1        1.0000    0.69030   0.23440   0.17350   Biso      1.000     O          -0.695977           
         O2        1.0000    0.86820   0.40180   0.72510   Biso      1.000     O          -0.146115           
         O3        1.0000    0.91190   0.14010   0.23750   Biso      1.000     O          -0.687768           
         O4        1.0000    0.68430   0.10650   0.26160   Biso      1.000     O          -0.722745           
         O5        1.0000    0.81430   0.07180   0.48490   Biso      1.000     O          -0.306721           
         O6        1.0000    0.89230   0.23520   0.54770   Biso      1.000     O          -0.528247           
         O7        1.0000    0.61310   0.14320   0.50450   Biso      1.000     O          -0.530556           
         O8        1.0000    0.94150   0.99870   0.79100   Biso      1.000     O          -0.679999           
         O9        1.0000    0.68360   0.96400   0.77350   Biso      1.000     O          -0.727457           
         O10       1.0000    0.87090   0.20510   0.12470   Biso      1.000     O          -0.683848           
         O11       1.0000    0.50020   0.31700   0.66810   Biso      1.000     O          -0.520411           
         O12       1.0000    0.12290   0.12030   0.52410   Biso      1.000     O          -0.143124           
         O13       1.0000    0.88250   0.85750   0.92530   Biso      1.000     O          -0.715543           
         O14       1.0000    0.92020   0.69820   0.14680   Biso      1.000     O          -0.515872           
         O15       1.0000    0.82170   0.60820   0.03290   Biso      1.000     O          -0.324805           
         O16       1.0000    0.50030   0.99680   0.13440   Biso      1.000     O          -0.648069           
         O17       1.0000    0.73260   0.98290   0.12660   Biso      1.000     O          -0.736985           
         O18       1.0000    0.65410   0.88640   0.90670   Biso      1.000     O          -0.715385           
         O19       1.0000    0.64030   0.60950   0.26390   Biso      1.000     O          -0.532102           
         O20       1.0000    0.36180   0.59400   0.21950   Biso      1.000     O          -0.312867           
         O21       1.0000    0.42880   0.28080   0.19820   Biso      1.000     O          -0.650583           
         O22       1.0000    0.55430   0.59080   0.06590   Biso      1.000     O          -0.136759           
         O23       1.0000    0.78910   0.80720   0.79160   Biso      1.000     O          -0.743859           
         O24       1.0000    0.21090   0.19280   0.20840   Biso      1.000     O          -0.743859           
         O25       1.0000    0.09910   0.65210   0.08640   Biso      1.000     O          -0.530265           
         O26       1.0000    0.44570   0.40920   0.93410   Biso      1.000     O          -0.136759           
         O27       1.0000    0.38690   0.85680   0.49550   Biso      1.000     O          -0.530556           
         O28       1.0000    0.63820   0.40600   0.78050   Biso      1.000     O          -0.312867           
         O29       1.0000    0.13180   0.59820   0.27490   Biso      1.000     O          -0.146115           
         O30       1.0000    0.08810   0.85990   0.76250   Biso      1.000     O          -0.687768           
         O31       1.0000    0.31570   0.89350   0.73840   Biso      1.000     O          -0.722745           
         O32       1.0000    0.87710   0.87970   0.47590   Biso      1.000     O          -0.143123           
         O33       1.0000    0.18570   0.92820   0.51510   Biso      1.000     O          -0.306721           
         O34       1.0000    0.57120   0.71920   0.80180   Biso      1.000     O          -0.650583           
         O35       1.0000    0.05850   0.00130   0.20900   Biso      1.000     O          -0.679999           
         O36       1.0000    0.31640   0.03600   0.22650   Biso      1.000     O          -0.727457           
         O37       1.0000    0.12910   0.79490   0.87530   Biso      1.000     O          -0.683848           
         O38       1.0000    0.10770   0.76480   0.45230   Biso      1.000     O          -0.528247           
         O39       1.0000    0.90090   0.34790   0.91360   Biso      1.000     O          -0.530265           
         O40       1.0000    0.07980   0.30180   0.85320   Biso      1.000     O          -0.515872           
         O41       1.0000    0.17830   0.39180   0.96710   Biso      1.000     O          -0.324807           
         O42       1.0000    0.49970   0.00320   0.86560   Biso      1.000     O          -0.648069           
         O43       1.0000    0.26740   0.01710   0.87340   Biso      1.000     O          -0.736985           
         O44       1.0000    0.11750   0.14250   0.07470   Biso      1.000     O          -0.715543           
         O45       1.0000    0.34590   0.11360   0.09330   Biso      1.000     O          -0.715386           
         O46       1.0000    0.35970   0.39050   0.73610   Biso      1.000     O          -0.532102           
         O47       1.0000    0.30970   0.76560   0.82650   Biso      1.000     O          -0.695977           
         O48       1.0000    0.49980   0.68300   0.33190   Biso      1.000     O          -0.52041  
         S1        1.0000    0.52500   0.65620   0.27072   Biso      1.000     S          1.120874  
         S2        1.0000    0.95070   0.63220   0.09981   Biso      1.000     S          1.12858   
         S3        1.0000    0.77120   0.14890   0.53215   Biso      1.000     S          1.123085  
         S4        1.0000    0.47500   0.34380   0.72928   Biso      1.000     S          1.120874  
         S5        1.0000    0.04930   0.36780   0.90019   Biso      1.000     S          1.12858   
         S6        1.0000    0.22880   0.85110   0.46785   Biso      1.000     S          1.123085 