
##########################################################################
#               Crystallographic Information Format file
#               Produced by PyCifRW module
#
#  This is a CIF file.  CIF has been adopted by the International
#  Union of Crystallography as the standard for data archiving and
#  transmission.
#
#  For information on this file format, follow the CIF links at
#  http://www.iucr.org
##########################################################################

data_image0

_cell_length_a                          9.1671
_cell_length_b                          15.52
_cell_length_c                          22.199
_cell_angle_alpha                       102.89
_cell_angle_beta                        101.79
_cell_angle_gamma                       104.14
_symmetry_space_group_name_H-M          'P 1'
_symmetry_int_tables_number             1
loop_
  _symmetry_equiv_pos_as_xyz
         'x, y, z' 
loop_
  _atom_site_label
  _atom_site_occupancy
  _atom_site_fract_x
  _atom_site_fract_y
  _atom_site_fract_z
  _atom_site_thermal_displace_type
  _atom_site_B_iso_or_equiv
  _atom_site_type_symbol
  _atom_site_charge
         C1        1.0000    0.69420   0.83680   0.17880   Biso      1.000     C          -0.08176  
         C2        1.0000    0.58850   0.88530   0.17560   Biso      1.000     C          -0.017418           
         C3        1.0000    0.47000   0.87000   0.20500   Biso      1.000     C          -0.0776   
         C4        1.0000    0.44610   0.79910   0.23480   Biso      1.000     C          -0.098557           
         C5        1.0000    0.60900   0.96140   0.14460   Biso      1.000     C          0.677049  
         C6        1.0000    0.40300   0.57780   0.07670   Biso      1.000     C          -0.254755           
         C7        1.0000    0.29540   0.27040   0.20990   Biso      1.000     C          0.62895   
         C8        1.0000    0.24570   0.35460   0.22690   Biso      1.000     C          -0.047129           
         C9        1.0000    0.32370   0.43550   0.21510   Biso      1.000     C          -0.199064           
         C10       1.0000    0.28230   0.51520   0.23220   Biso      1.000     C          0.140079  
         C11       1.0000    0.15920   0.51740   0.26190   Biso      1.000     C          0.185248  
         C12       1.0000    0.08340   0.43720   0.27420   Biso      1.000     C          -0.220541           
         C13       1.0000    0.75750   0.84720   0.93080   Biso      1.000     C          0.661966  
         C14       1.0000    0.12470   0.35690   0.25740   Biso      1.000     C          -0.074771           
         C15       1.0000    0.55140   0.74810   0.23500   Biso      1.000     C          -0.07631  
         C16       1.0000    0.39100   0.03860   0.85540   Biso      1.000     C          0.67705   
         C17       1.0000    0.50300   0.71440   0.01510   Biso      1.000     C          -0.225348           
         C18       1.0000    0.53000   0.13000   0.79500   Biso      1.000     C          -0.077604           
         C19       1.0000    0.41150   0.11470   0.82440   Biso      1.000     C          -0.017425           
         C20       1.0000    0.30580   0.16320   0.82120   Biso      1.000     C          -0.081746           
         C21       1.0000    0.32590   0.23450   0.79140   Biso      1.000     C          -0.106984           
         C22       1.0000    0.44860   0.25190   0.76500   Biso      1.000     C          -0.076304           
         C23       1.0000    0.98990   0.39580   0.69380   Biso      1.000     C          -0.251741           
         C24       1.0000    0.87530   0.64310   0.74260   Biso      1.000     C          -0.074772           
         C25       1.0000    0.91660   0.56280   0.72580   Biso      1.000     C          -0.22054  
         C26       1.0000    0.01010   0.60420   0.30620   Biso      1.000     C          -0.251741           
         C27       1.0000    0.84080   0.48260   0.73810   Biso      1.000     C          0.185248  
         C28       1.0000    0.59130   0.65750   0.03390   Biso      1.000     C          0.180027  
         C29       1.0000    0.90970   0.12440   0.34050   Biso      1.000     C          -0.05485  
         C30       1.0000    0.55700   0.77650   0.98350   Biso      1.000     C          -0.056124           
         C31       1.0000    0.69640   0.78550   0.96890   Biso      1.000     C          -0.046169           
         C32       1.0000    0.78810   0.73220   0.98820   Biso      1.000     C          -0.200716           
         C33       1.0000    0.73820   0.67050   0.01980   Biso      1.000     C          0.150882  
         C34       1.0000    0.73900   0.40750   0.14810   Biso      1.000     C          -0.08473  
         C35       1.0000    0.77800   0.49480   0.13980   Biso      1.000     C          -0.090524           
         C36       1.0000    0.89750   0.52120   0.11260   Biso      1.000     C          -0.077064           
         C37       1.0000    0.97760   0.45910   0.09200   Biso      1.000     C          -0.100713           
         C38       1.0000    0.93990   0.37530   0.10380   Biso      1.000     C          -0.082563           
         C39       1.0000    0.81870   0.34640   0.13110   Biso      1.000     C          -0.022222           
         C40       1.0000    0.78720   0.25380   0.14420   Biso      1.000     C          0.689031  
         C41       1.0000    0.82910   0.12380   0.27480   Biso      1.000     C          0.679758  
         C42       1.0000    0.80860   0.99420   0.76020   Biso      1.000     C          0.685574  
         C43       1.0000    0.65510   0.02260   0.66270   Biso      1.000     C          -0.096248           
         C44       1.0000    0.80280   0.03460   0.70320   Biso      1.000     C          -0.022602           
         C45       1.0000    0.93280   0.07860   0.69020   Biso      1.000     C          -0.074009           
         C46       1.0000    0.92440   0.11640   0.63860   Biso      1.000     C          -0.097347           
         C47       1.0000    0.78040   0.10280   0.59870   Biso      1.000     C          -0.056956           
         C48       1.0000    0.29210   0.14960   0.54830   Biso      1.000     C          -0.256596           
         C49       1.0000    0.82340   0.09880   0.38230   Biso      1.000     C          -0.196367           
         C50       1.0000    0.90480   0.10090   0.44390   Biso      1.000     C          0.154833  
         C51       1.0000    0.06250   0.12380   0.46440   Biso      1.000     C          0.18756   
         C52       1.0000    0.14860   0.14900   0.42190   Biso      1.000     C          -0.205036           
         C53       1.0000    0.07350   0.14870   0.36190   Biso      1.000     C          -0.080815           
         C54       1.0000    0.64730   0.05750   0.60950   Biso      1.000     C          -0.098299           
         C55       1.0000    0.71770   0.48480   0.76780   Biso      1.000     C          0.140076  
         C56       1.0000    0.55390   0.20090   0.76520   Biso      1.000     C          -0.098557           
         C57       1.0000    0.67630   0.56450   0.78490   Biso      1.000     C          -0.199061           
         C58       1.0000    0.26100   0.59250   0.85190   Biso      1.000     C          -0.08473  
         C59       1.0000    0.22200   0.50520   0.86020   Biso      1.000     C          -0.090524           
         C60       1.0000    0.10250   0.47880   0.88740   Biso      1.000     C          -0.077064           
         C61       1.0000    0.02240   0.54090   0.90800   Biso      1.000     C          -0.100713           
         C62       1.0000    0.18130   0.65360   0.86890   Biso      1.000     C          -0.022222           
         C63       1.0000    0.21280   0.74620   0.85580   Biso      1.000     C          0.689031  
         C64       1.0000    0.19140   0.00580   0.23980   Biso      1.000     C          0.685574  
         C65       1.0000    0.35270   0.94250   0.39050   Biso      1.000     C          -0.098316           
         C66       1.0000    0.34490   0.97740   0.33730   Biso      1.000     C          -0.096246           
         C67       1.0000    0.19720   0.96540   0.29680   Biso      1.000     C          -0.022602           
         C68       1.0000    0.26180   0.32950   0.98020   Biso      1.000     C          0.150871  
         C69       1.0000    0.06720   0.92140   0.30980   Biso      1.000     C          -0.074009           
         C70       1.0000    0.21960   0.89720   0.40130   Biso      1.000     C          -0.056944           
         C71       1.0000    0.70790   0.85040   0.45170   Biso      1.000     C          -0.256596           
         C72       1.0000    0.17660   0.90120   0.61770   Biso      1.000     C          -0.196367           
         C73       1.0000    0.09520   0.89910   0.55610   Biso      1.000     C          0.154834  
         C74       1.0000    0.93750   0.87620   0.53560   Biso      1.000     C          0.18756   
         C75       1.0000    0.85140   0.85100   0.57810   Biso      1.000     C          -0.205036           
         C76       1.0000    0.92650   0.85130   0.63810   Biso      1.000     C          -0.080815           
         C77       1.0000    0.09030   0.87560   0.65950   Biso      1.000     C          -0.05485  
         C78       1.0000    0.17090   0.87620   0.72520   Biso      1.000     C          0.679758  
         C79       1.0000    0.67410   0.76550   0.20860   Biso      1.000     C          -0.106977           
         C80       1.0000    0.07560   0.88360   0.36140   Biso      1.000     C          -0.097343           
         C81       1.0000    0.21190   0.26780   0.01180   Biso      1.000     C          -0.200704           
         C82       1.0000    0.06010   0.62470   0.89620   Biso      1.000     C          -0.082563           
         C83       1.0000    0.30360   0.21450   0.03110   Biso      1.000     C          -0.046178           
         C84       1.0000    0.75430   0.64540   0.77310   Biso      1.000     C          -0.047129           
         C85       1.0000    0.70460   0.72960   0.79010   Biso      1.000     C          0.62895   
         C86       1.0000    0.24250   0.15280   0.06920   Biso      1.000     C          0.661967  
         C87       1.0000    0.59700   0.42220   0.92330   Biso      1.000     C          -0.254755           
         C88       1.0000    0.49700   0.28560   0.98490   Biso      1.000     C          -0.225349           
         C89       1.0000    0.44300   0.22350   0.01650   Biso      1.000     C          -0.056116           
         C90       1.0000    0.40870   0.34250   0.96610   Biso      1.000     C          0.180028  
         H1        1.0000    0.07250   0.30380   0.26640   Biso      1.000     H          0.124931  
         H2        1.0000    0.66730   0.78790   0.45320   Biso      1.000     H          0.14368   
         H3        1.0000    0.56420   0.99200   0.67120   Biso      1.000     H          0.119547  
         H4        1.0000    0.66620   0.89050   0.47800   Biso      1.000     H          0.128516  
         H5        1.0000    0.03020   0.08410   0.71600   Biso      1.000     H          0.117198  
         H6        1.0000    0.55080   0.04950   0.58190   Biso      1.000     H          0.121511  
         H7        1.0000    0.67360   0.46660   0.96050   Biso      1.000     H          0.131153  
         H8        1.0000    0.01480   0.15030   0.63150   Biso      1.000     H          0.125414  
         H9        1.0000    0.98520   0.84970   0.36850   Biso      1.000     H          0.125414  
         H10       1.0000    0.67820   0.85270   0.40820   Biso      1.000     H          0.145729  
         H11       1.0000    0.99800   0.33390   0.68480   Biso      1.000     H          0.148495  
         H12       1.0000    0.08880   0.43880   0.71990   Biso      1.000     H          0.129723  
         H13       1.0000    0.32180   0.14730   0.59180   Biso      1.000     H          0.145729  
         H14       1.0000    0.96130   0.41060   0.65410   Biso      1.000     H          0.138667  
         H15       1.0000    0.99750   0.33530   0.09330   Biso      1.000     H          0.114247  
         H16       1.0000    0.62460   0.36570   0.91430   Biso      1.000     H          0.134318  
         H17       1.0000    0.05390   0.47460   0.07110   Biso      1.000     H          0.125922  
         H18       1.0000    0.74270   0.83400   0.56530   Biso      1.000     H          0.137431  
         H19       1.0000    0.92750   0.69620   0.73360   Biso      1.000     H          0.124931  
         H20       1.0000    0.72360   0.53580   0.15250   Biso      1.000     H          0.121046  
         H21       1.0000    0.86750   0.83490   0.66560   Biso      1.000     H          0.121174  
         H22       1.0000    0.65660   0.38980   0.16570   Biso      1.000     H          0.128637  
         H23       1.0000    0.59420   0.44650   0.88710   Biso      1.000     H          0.139887  
         H24       1.0000    0.99680   0.56280   0.70600   Biso      1.000     H          0.136502  
         H25       1.0000    0.88450   0.73880   0.97930   Biso      1.000     H          0.148225  
         H26       1.0000    0.49700   0.81350   0.97170   Biso      1.000     H          0.126903  
         H27       1.0000    0.28540   0.91930   0.63040   Biso      1.000     H          0.142848  
         H28       1.0000    0.33380   0.10950   0.52200   Biso      1.000     H          0.128516  
         H29       1.0000    0.71460   0.08070   0.36960   Biso      1.000     H          0.142848  
         H30       1.0000    0.25660   0.26930   0.78960   Biso      1.000     H          0.127351  
         H31       1.0000    0.11550   0.26120   0.02070   Biso      1.000     H          0.148224  
         H32       1.0000    0.00320   0.43720   0.29400   Biso      1.000     H          0.136502  
         H33       1.0000    0.03870   0.58940   0.34590   Biso      1.000     H          0.138667  
         H34       1.0000    0.74340   0.73070   0.21040   Biso      1.000     H          0.12735   
         H35       1.0000    0.91120   0.56120   0.28010   Biso      1.000     H          0.129723  
         H36       1.0000    0.34340   0.61020   0.83430   Biso      1.000     H          0.128637  
         H37       1.0000    0.40420   0.43570   0.19540   Biso      1.000     H          0.147432  
         H38       1.0000    0.00200   0.66610   0.31520   Biso      1.000     H          0.148495  
         H39       1.0000    0.27640   0.46420   0.84750   Biso      1.000     H          0.121046  
         H40       1.0000    0.40580   0.55350   0.11290   Biso      1.000     H          0.139887  
         H41       1.0000    0.37540   0.63430   0.08570   Biso      1.000     H          0.134318  
         H42       1.0000    0.32640   0.53340   0.03950   Biso      1.000     H          0.131153  
         H43       1.0000    0.50300   0.18650   0.02830   Biso      1.000     H          0.126903  
         H44       1.0000    0.33270   0.21210   0.54680   Biso      1.000     H          0.14368   
         H45       1.0000    0.94610   0.52540   0.92890   Biso      1.000     H          0.125922  
         H46       1.0000    0.63580   0.21320   0.74640   Biso      1.000     H          0.128818  
         H47       1.0000    0.40460   0.90730   0.20500   Biso      1.000     H          0.119914  
         H48       1.0000    0.00250   0.66470   0.90670   Biso      1.000     H          0.114247  
         H49       1.0000    0.59580   0.56430   0.80460   Biso      1.000     H          0.147432  
         H50       1.0000    0.77820   0.85070   0.16140   Biso      1.000     H          0.124033  
         H51       1.0000    0.59540   0.09270   0.79500   Biso      1.000     H          0.119914  
         H52       1.0000    0.59270   0.29020   0.97580   Biso      1.000     H          0.138401  
         H53       1.0000    0.44920   0.95050   0.41810   Biso      1.000     H          0.121512  
         H54       1.0000    0.13250   0.16510   0.33440   Biso      1.000     H          0.121174  
         H55       1.0000    0.43580   0.00800   0.32880   Biso      1.000     H          0.119547  
         H56       1.0000    0.25730   0.16600   0.43470   Biso      1.000     H          0.137432  
         H57       1.0000    0.22180   0.14930   0.83860   Biso      1.000     H          0.124032  
         H58       1.0000    0.96980   0.91590   0.28400   Biso      1.000     H          0.117199  
         H59       1.0000    0.36420   0.78680   0.25360   Biso      1.000     H          0.128818  
         H60       1.0000    0.40730   0.70980   0.02420   Biso      1.000     H          0.138401  
         Ho1       1.0000    0.51675   0.86169   0.80353   Biso      1.000     Ho          2.123887  
         Ho2       1.0000    0.48325   0.13831   0.19647   Biso      1.000     Ho          2.123888  
         Ho3       1.0000    0.02993   0.91146   0.85606   Biso      1.000     Ho          2.211121  
         Ho4       1.0000    0.97007   0.08854   0.14394   Biso      1.000     Ho          2.211121  
         O1        1.0000    0.42710   0.28030   0.19960   Biso      1.000     O          -0.644093           
         O2        1.0000    0.35870   0.59500   0.21830   Biso      1.000     O          -0.312399           
         O3        1.0000    0.63560   0.61020   0.26280   Biso      1.000     O          -0.532115           
         O4        1.0000    0.66640   0.88740   0.90580   Biso      1.000     O          -0.717648           
         O5        1.0000    0.89140   0.85710   0.92400   Biso      1.000     O          -0.715518           
         O6        1.0000    0.73120   0.98390   0.12700   Biso      1.000     O          -0.733309           
         O7        1.0000    0.50110   0.99930   0.13550   Biso      1.000     O          -0.654963           
         O8        1.0000    0.81830   0.60680   0.03140   Biso      1.000     O          -0.327431           
         O9        1.0000    0.91970   0.69790   0.14630   Biso      1.000     O          -0.514087           
         O10       1.0000    0.86170   0.20050   0.12350   Biso      1.000     O          -0.711559           
         O11       1.0000    0.68360   0.96370   0.77250   Biso      1.000     O          -0.719165           
         O12       1.0000    0.94020   0.99580   0.78990   Biso      1.000     O          -0.684767           
         O13       1.0000    0.61340   0.14450   0.50590   Biso      1.000     O          -0.528475           
         O14       1.0000    0.89170   0.23390   0.54750   Biso      1.000     O          -0.527623           
         O15       1.0000    0.81180   0.07070   0.48380   Biso      1.000     O          -0.319566           
         O16       1.0000    0.12220   0.11930   0.52450   Biso      1.000     O          -0.145588           
         O17       1.0000    0.68360   0.10770   0.26200   Biso      1.000     O          -0.712554           
         O18       1.0000    0.91030   0.14220   0.23750   Biso      1.000     O          -0.691331           
         O19       1.0000    0.68520   0.23390   0.17290   Biso      1.000     O          -0.683622           
         O20       1.0000    0.09640   0.65070   0.08610   Biso      1.000     O          -0.531873           
         O21       1.0000    0.21020   0.19400   0.20940   Biso      1.000     O          -0.754904           
         O22       1.0000    0.49570   0.68360   0.33040   Biso      1.000     O          -0.517823           
         O23       1.0000    0.08970   0.85780   0.76250   Biso      1.000     O          -0.691331           
         O24       1.0000    0.31640   0.89230   0.73800   Biso      1.000     O          -0.712554           
         O25       1.0000    0.87780   0.88070   0.47550   Biso      1.000     O          -0.145588           
         O26       1.0000    0.18820   0.92930   0.51620   Biso      1.000     O          -0.319566           
         O27       1.0000    0.10830   0.76610   0.45250   Biso      1.000     O          -0.527623           
         O28       1.0000    0.38660   0.85550   0.49410   Biso      1.000     O          -0.528475           
         O29       1.0000    0.05980   0.00420   0.21010   Biso      1.000     O          -0.684767           
         O30       1.0000    0.31640   0.03630   0.22750   Biso      1.000     O          -0.719165           
         O31       1.0000    0.13830   0.79950   0.87650   Biso      1.000     O          -0.711559           
         O32       1.0000    0.31480   0.76610   0.82710   Biso      1.000     O          -0.683622           
         O33       1.0000    0.90360   0.34930   0.91390   Biso      1.000     O          -0.531873           
         O34       1.0000    0.08030   0.30210   0.85370   Biso      1.000     O          -0.514087           
         O35       1.0000    0.18170   0.39320   0.96860   Biso      1.000     O          -0.327431           
         O36       1.0000    0.49890   0.00070   0.86450   Biso      1.000     O          -0.654963           
         O37       1.0000    0.26880   0.01610   0.87300   Biso      1.000     O          -0.73331  
         O38       1.0000    0.10860   0.14290   0.07600   Biso      1.000     O          -0.715518           
         O39       1.0000    0.33360   0.11260   0.09420   Biso      1.000     O          -0.717648           
         O40       1.0000    0.36440   0.38980   0.73720   Biso      1.000     O          -0.532114           
         O41       1.0000    0.64130   0.40500   0.78170   Biso      1.000     O          -0.312399           
         O42       1.0000    0.57290   0.71970   0.80040   Biso      1.000     O          -0.644093           
         O43       1.0000    0.44810   0.40390   0.93510   Biso      1.000     O          -0.119599           
         O44       1.0000    0.78980   0.80600   0.79060   Biso      1.000     O          -0.754904           
         O45       1.0000    0.87360   0.40160   0.72690   Biso      1.000     O          -0.128926           
         O46       1.0000    0.50430   0.31640   0.66960   Biso      1.000     O          -0.517823           
         O47       1.0000    0.55190   0.59610   0.06490   Biso      1.000     O          -0.119599           
         O48       1.0000    0.12640   0.59840   0.27310   Biso      1.000     O          -0.128926           
         S1        1.0000    0.77030   0.14920   0.53212   Biso      1.000     S          1.120717  
         S2        1.0000    0.47850   0.34350   0.73025   Biso      1.000     S          1.121867  
         S3        1.0000    0.05300   0.36940   0.90081   Biso      1.000     S          1.124655  
         S4        1.0000    0.22970   0.85080   0.46788   Biso      1.000     S          1.120716  
         S5        1.0000    0.94700   0.63060   0.09919   Biso      1.000     S          1.124655  
         S6        1.0000    0.52150   0.65650   0.26975   Biso      1.000     S          1.121868 