
##########################################################################
#               Crystallographic Information Format file
#               Produced by PyCifRW module
#
#  This is a CIF file.  CIF has been adopted by the International
#  Union of Crystallography as the standard for data archiving and
#  transmission.
#
#  For information on this file format, follow the CIF links at
#  http://www.iucr.org
##########################################################################

data_image0

_cell_length_a                          8.92
_cell_length_b                          9.1767
_cell_length_c                          9.1767
_cell_angle_alpha                       76.3371
_cell_angle_beta                        60.9211
_cell_angle_gamma                       60.9212
_symmetry_space_group_name_H-M          'P 1'
_symmetry_int_tables_number             1
loop_
  _symmetry_equiv_pos_as_xyz
         'x, y, z' 
loop_
  _atom_site_label
  _atom_site_occupancy
  _atom_site_fract_x
  _atom_site_fract_y
  _atom_site_fract_z
  _atom_site_thermal_displace_type
  _atom_site_B_iso_or_equiv
  _atom_site_type_symbol
  _atom_site_charge
         C1        1.0000    0.41960   0.77800   0.78180   Biso      1.000     C          0.49517100000000003           
         C2        1.0000    0.77100   0.26180   0.27140   Biso      1.000     C          0.5100359999999999  
         C3        1.0000    0.97940   0.22200   0.21820   Biso      1.000     C          0.495147  
         C4        1.0000    0.80240   0.21820   0.77800   Biso      1.000     C          0.49515699999999996           
         C5        1.0000    0.95760   0.27140   0.73820   Biso      1.000     C          0.510062  
         C6        1.0000    0.79860   0.78180   0.22200   Biso      1.000     C          0.495158  
         C7        1.0000    0.96720   0.72860   0.26180   Biso      1.000     C          0.510047  
         C8        1.0000    0.30420   0.73820   0.72860   Biso      1.000     C          0.510055  
         Ca1       1.0000    0.75000   0.50000   0.50000   Biso      1.000     Ca          1.335391  
         K1        1.0000    0.50000   0.00000   0.00000   Biso      1.000     K          0.914899  
         K2        1.0000    0.25000   0.50000   0.50000   Biso      1.000     K          0.887228  
         O1        1.0000    0.75270   0.18180   0.18920   Biso      1.000     O          -0.6214149999999999           
         O2        1.0000    0.09920   0.11400   0.10440   Biso      1.000     O          -0.618924           
         O3        1.0000    0.39150   0.63730   0.61550   Biso      1.000     O          -0.549242           
         O4        1.0000    0.59580   0.70370   0.71170   Biso      1.000     O          -0.5491659999999999           
         O5        1.0000    0.12370   0.81820   0.81080   Biso      1.000     O          -0.6214310000000001           
         O6        1.0000    0.31760   0.88600   0.89560   Biso      1.000     O          -0.6189359999999999           
         O7        1.0000    0.99300   0.61550   0.36270   Biso      1.000     O          -0.549241           
         O8        1.0000    0.05810   0.18920   0.81820   Biso      1.000     O          -0.6214189999999999           
         O9        1.0000    0.06550   0.81080   0.18180   Biso      1.000     O          -0.6214029999999999           
         O10       1.0000    0.78680   0.89560   0.11400   Biso      1.000     O          -0.618931           
         O11       1.0000    0.97120   0.38450   0.63730   Biso      1.000     O          -0.54924  
         O12       1.0000    0.70050   0.28830   0.70370   Biso      1.000     O          -0.5491550000000001           
         O13       1.0000    0.01120   0.29630   0.28830   Biso      1.000     O          -0.5491510000000001           
         O14       1.0000    0.79640   0.10440   0.88600   Biso      1.000     O          -0.618931           
         O15       1.0000    0.69250   0.71170   0.29630   Biso      1.000     O          -0.549153           
         O16       1.0000    0.64430   0.36270   0.38450   Biso      1.000     O          -0.54923  
         Zr1       1.0000    0.00000   0.00000   0.00000   Biso      1.000     Zr          2.196616 