
##########################################################################
#               Crystallographic Information Format file
#               Produced by PyCifRW module
#
#  This is a CIF file.  CIF has been adopted by the International
#  Union of Crystallography as the standard for data archiving and
#  transmission.
#
#  For information on this file format, follow the CIF links at
#  http://www.iucr.org
##########################################################################

data_image0

_cell_length_a                          4.733
_cell_length_b                          17.305
_cell_length_c                          19.243
_cell_angle_alpha                       90
_cell_angle_beta                        90
_cell_angle_gamma                       90
_symmetry_space_group_name_H-M          'P 1'
_symmetry_int_tables_number             1
loop_
  _symmetry_equiv_pos_as_xyz
         'x, y, z' 
loop_
  _atom_site_label
  _atom_site_occupancy
  _atom_site_fract_x
  _atom_site_fract_y
  _atom_site_fract_z
  _atom_site_thermal_displace_type
  _atom_site_B_iso_or_equiv
  _atom_site_type_symbol
  _atom_site_charge
         Br1       1.0000    0.97650   0.81336   0.85130   Biso      1.000     Br          0.070139  
         Br2       1.0000    0.52350   0.18664   0.35130   Biso      1.000     Br          0.070137  
         Br3       1.0000    0.02350   0.31336   0.64870   Biso      1.000     Br          0.070137  
         Br4       1.0000    0.47650   0.68664   0.14870   Biso      1.000     Br          0.070133  
         C1        1.0000    0.45150   0.54810   0.83010   Biso      1.000     C          0.130857  
         C2        1.0000    0.48230   0.49440   0.89240   Biso      1.000     C          0.071706  
         C3        1.0000    0.63020   0.42540   0.85840   Biso      1.000     C          0.170381  
         C4        1.0000    0.34700   0.36540   0.76280   Biso      1.000     C          0.007187  
         C5        1.0000    0.14640   0.31460   0.74160   Biso      1.000     C          -0.108177           
         C6        1.0000    0.02250   0.26520   0.79170   Biso      1.000     C          0.457452  
         C7        1.0000    0.30730   0.31700   0.87900   Biso      1.000     C          0.606141  
         C8        1.0000    0.73870   0.44000   0.21990   Biso      1.000     C          -0.000443           
         C9        1.0000    0.01770   0.50560   0.39240   Biso      1.000     C          0.071706  
         C10       1.0000    0.04850   0.45190   0.33010   Biso      1.000     C          0.130852  
         C11       1.0000    0.73700   0.53750   0.79550   Biso      1.000     C          0.047093  
         C12       1.0000    0.86980   0.57460   0.35840   Biso      1.000     C          0.170382  
         C13       1.0000    0.15300   0.63460   0.26280   Biso      1.000     C          0.007188  
         C14       1.0000    0.35360   0.68540   0.24160   Biso      1.000     C          -0.10818  
         C15       1.0000    0.47750   0.73480   0.29170   Biso      1.000     C          0.457452  
         C16       1.0000    0.19270   0.68300   0.37900   Biso      1.000     C          0.606141  
         C17       1.0000    0.76300   0.46250   0.29550   Biso      1.000     C          0.047092  
         C18       1.0000    0.76130   0.56000   0.71990   Biso      1.000     C          -0.000439           
         C19       1.0000    0.80730   0.18300   0.12100   Biso      1.000     C          0.606141  
         C20       1.0000    0.52250   0.23480   0.20830   Biso      1.000     C          0.457452  
         C21       1.0000    0.23870   0.06000   0.78010   Biso      1.000     C          -0.000438           
         C22       1.0000    0.26300   0.03750   0.70450   Biso      1.000     C          0.047092  
         C23       1.0000    0.54850   0.04810   0.66990   Biso      1.000     C          0.130853  
         C24       1.0000    0.51770   0.99440   0.60760   Biso      1.000     C          0.071703  
         C25       1.0000    0.36980   0.92540   0.64160   Biso      1.000     C          0.170382  
         C26       1.0000    0.65300   0.86540   0.73720   Biso      1.000     C          0.007184  
         C27       1.0000    0.97750   0.76520   0.70830   Biso      1.000     C          0.457454  
         C28       1.0000    0.85360   0.81460   0.75840   Biso      1.000     C          -0.108183           
         C29       1.0000    0.26130   0.94000   0.28010   Biso      1.000     C          -0.00044  
         C30       1.0000    0.23700   0.96250   0.20450   Biso      1.000     C          0.047092  
         C31       1.0000    0.95150   0.95190   0.16990   Biso      1.000     C          0.130854  
         C32       1.0000    0.98230   0.00560   0.10760   Biso      1.000     C          0.071705  
         C33       1.0000    0.13020   0.07460   0.14160   Biso      1.000     C          0.170381  
         C34       1.0000    0.84700   0.13460   0.23720   Biso      1.000     C          0.007185  
         C35       1.0000    0.64640   0.18540   0.25840   Biso      1.000     C          -0.108178           
         C36       1.0000    0.69270   0.81700   0.62100   Biso      1.000     C          0.60614   
         H1        1.0000    0.51000   0.14800   0.61000   Biso      1.000     H          0.353323  
         H2        1.0000    0.29000   0.12400   0.78000   Biso      1.000     H          0.088793  
         H3        1.0000    0.06000   0.03900   0.79700   Biso      1.000     H          0.102022  
         H4        1.0000    0.13000   0.06600   0.68100   Biso      1.000     H          0.077102  
         H5        1.0000    0.27000   0.99300   0.51400   Biso      1.000     H          0.344506  
         H6        1.0000    0.71000   0.02200   0.70300   Biso      1.000     H          0.062243  
         H7        1.0000    0.26000   0.90800   0.60500   Biso      1.000     H          0.070089  
         H8        1.0000    0.28000   0.48600   0.91300   Biso      1.000     H          0.064375  
         H9        1.0000    0.72000   0.98600   0.58700   Biso      1.000     H          0.064377  
         H10       1.0000    0.42000   0.39400   0.72800   Biso      1.000     H          0.133991  
         H11       1.0000    0.73000   0.19000   0.81100   Biso      1.000     H          0.341436  
         H12       1.0000    0.73000   0.21000   0.73300   Biso      1.000     H          0.321569  
         H13       1.0000    0.79000   0.37600   0.22000   Biso      1.000     H          0.088791  
         H14       1.0000    0.56000   0.46100   0.20300   Biso      1.000     H          0.102023  
         H15       1.0000    0.73000   0.49300   0.98600   Biso      1.000     H          0.344506  
         H16       1.0000    0.63000   0.43400   0.31900   Biso      1.000     H          0.0771    
         H17       1.0000    0.21000   0.47800   0.29700   Biso      1.000     H          0.062242  
         H18       1.0000    0.77000   0.50700   0.48600   Biso      1.000     H          0.344508  
         H19       1.0000    0.22000   0.51400   0.41300   Biso      1.000     H          0.064375  
         H20       1.0000    0.76000   0.59200   0.39500   Biso      1.000     H          0.070089  
         H21       1.0000    0.08000   0.60600   0.22800   Biso      1.000     H          0.133991  
         H22       1.0000    0.77000   0.81000   0.31100   Biso      1.000     H          0.341434  
         H23       1.0000    0.77000   0.79000   0.23300   Biso      1.000     H          0.321569  
         H24       1.0000    0.01000   0.35200   0.39000   Biso      1.000     H          0.353322  
         H25       1.0000    0.29000   0.52200   0.79700   Biso      1.000     H          0.062242  
         H26       1.0000    0.74000   0.40800   0.89500   Biso      1.000     H          0.070088  
         H27       1.0000    0.87000   0.56600   0.81900   Biso      1.000     H          0.0771    
         H28       1.0000    0.58000   0.89400   0.77200   Biso      1.000     H          0.133992  
         H29       1.0000    0.27000   0.69000   0.68900   Biso      1.000     H          0.341438  
         H30       1.0000    0.27000   0.71000   0.76700   Biso      1.000     H          0.321571  
         H31       1.0000    0.49000   0.64800   0.89000   Biso      1.000     H          0.353323  
         H32       1.0000    0.44000   0.96100   0.29700   Biso      1.000     H          0.10202   
         H33       1.0000    0.37000   0.93400   0.18100   Biso      1.000     H          0.077102  
         H34       1.0000    0.99000   0.85200   0.11000   Biso      1.000     H          0.353323  
         H35       1.0000    0.79000   0.97800   0.20300   Biso      1.000     H          0.062242  
         H36       1.0000    0.21000   0.87600   0.28000   Biso      1.000     H          0.088793  
         H37       1.0000    0.78000   0.01400   0.08700   Biso      1.000     H          0.064374  
         H38       1.0000    0.24000   0.09200   0.10500   Biso      1.000     H          0.070088  
         H39       1.0000    0.92000   0.10600   0.27200   Biso      1.000     H          0.133991  
         H40       1.0000    0.23000   0.31000   0.18900   Biso      1.000     H          0.341436  
         H41       1.0000    0.23000   0.29000   0.26700   Biso      1.000     H          0.32157   
         H42       1.0000    0.71000   0.62400   0.72000   Biso      1.000     H          0.088792  
         H43       1.0000    0.94000   0.53900   0.70300   Biso      1.000     H          0.102019  
         H44       1.0000    0.23000   0.00700   0.01400   Biso      1.000     H          0.344505  
         N1        1.0000    0.39560   0.73310   0.35790   Biso      1.000     N          -0.569155           
         N2        1.0000    0.07750   0.63210   0.33100   Biso      1.000     N          -0.110846           
         N3        1.0000    0.18820   0.71590   0.72500   Biso      1.000     N          -0.652798           
         N4        1.0000    0.89560   0.76690   0.64210   Biso      1.000     N          -0.569152           
         N5        1.0000    0.57750   0.86790   0.66900   Biso      1.000     N          -0.110847           
         N6        1.0000    0.81180   0.21590   0.77500   Biso      1.000     N          -0.652795           
         N7        1.0000    0.60440   0.23310   0.14210   Biso      1.000     N          -0.569157           
         N8        1.0000    0.92250   0.13210   0.16900   Biso      1.000     N          -0.110845           
         N9        1.0000    0.68820   0.78410   0.27500   Biso      1.000     N          -0.652794           
         N10       1.0000    0.10440   0.26690   0.85790   Biso      1.000     N          -0.569157           
         N11       1.0000    0.31180   0.28410   0.22500   Biso      1.000     N          -0.652795           
         N12       1.0000    0.42250   0.36790   0.83100   Biso      1.000     N          -0.110845           
         Na1       1.0000    0.96910   0.67610   0.54980   Biso      1.000     Na          0.860099  
         Na2       1.0000    0.46910   0.82390   0.45020   Biso      1.000     Na          0.860094  
         Na3       1.0000    0.03090   0.17610   0.95020   Biso      1.000     Na          0.860096  
         Na4       1.0000    0.53090   0.32390   0.04980   Biso      1.000     Na          0.860096  
         O1        1.0000    0.55080   0.52110   0.67910   Biso      1.000     O          -0.403198           
         O2        1.0000    0.88620   0.18080   0.05980   Biso      1.000     O          -0.624514           
         O3        1.0000    0.17010   0.96910   0.06040   Biso      1.000     O          -0.490278           
         O4        1.0000    0.88970   0.87380   0.15550   Biso      1.000     O          -0.485955           
         O5        1.0000    0.29230   0.04490   0.19690   Biso      1.000     O          -0.256963           
         O6        1.0000    0.05080   0.97890   0.32090   Biso      1.000     O          -0.403197           
         O7        1.0000    0.28380   0.95310   0.43690   Biso      1.000     O          -0.681326           
         O8        1.0000    0.88200   0.86880   0.39580   Biso      1.000     O          -0.830058           
         O9        1.0000    0.61380   0.81920   0.55980   Biso      1.000     O          -0.624505           
         O10       1.0000    0.29550   0.49090   0.57190   Biso      1.000     O          -0.516815           
         O11       1.0000    0.32990   0.03090   0.56040   Biso      1.000     O          -0.49027  
         O12       1.0000    0.61030   0.12620   0.65550   Biso      1.000     O          -0.485953           
         O13       1.0000    0.20770   0.95510   0.69690   Biso      1.000     O          -0.256963           
         O14       1.0000    0.44920   0.02110   0.82090   Biso      1.000     O          -0.403226           
         O15       1.0000    0.21620   0.04690   0.93690   Biso      1.000     O          -0.681311           
         O16       1.0000    0.79550   0.00910   0.42810   Biso      1.000     O          -0.516799           
         O17       1.0000    0.38200   0.63120   0.60420   Biso      1.000     O          -0.830064           
         O18       1.0000    0.70450   0.99090   0.92810   Biso      1.000     O          -0.516727           
         O19       1.0000    0.61800   0.13120   0.89580   Biso      1.000     O          -0.830071           
         O20       1.0000    0.11380   0.68080   0.44020   Biso      1.000     O          -0.624505           
         O21       1.0000    0.82990   0.46910   0.43960   Biso      1.000     O          -0.490274           
         O22       1.0000    0.11030   0.37380   0.34450   Biso      1.000     O          -0.485956           
         O23       1.0000    0.70770   0.54490   0.30310   Biso      1.000     O          -0.256962           
         O24       1.0000    0.78380   0.54690   0.56310   Biso      1.000     O          -0.681347           
         O25       1.0000    0.71620   0.45310   0.06310   Biso      1.000     O          -0.681296           
         O26       1.0000    0.94920   0.47890   0.17910   Biso      1.000     O          -0.403213           
         O27       1.0000    0.20450   0.50910   0.07190   Biso      1.000     O          -0.516741           
         O28       1.0000    0.38620   0.31920   0.94020   Biso      1.000     O          -0.624511           
         O29       1.0000    0.67010   0.53090   0.93960   Biso      1.000     O          -0.490271           
         O30       1.0000    0.38970   0.62620   0.84450   Biso      1.000     O          -0.485953           
         O31       1.0000    0.79230   0.45510   0.80310   Biso      1.000     O          -0.256963           
         O32       1.0000    0.11800   0.36880   0.10420   Biso      1.000     O          -0.830071           
         P1        1.0000    0.99270   0.44757   0.10162   Biso      1.000     P          1.349953  
         P2        1.0000    0.50730   0.55243   0.60162   Biso      1.000     P          1.350029  
         P3        1.0000    0.00730   0.94757   0.39838   Biso      1.000     P          1.350007  
         P4        1.0000    0.49270   0.05243   0.89838   Biso      1.000     P          1.349968 