
##########################################################################
#               Crystallographic Information Format file
#               Produced by PyCifRW module
#
#  This is a CIF file.  CIF has been adopted by the International
#  Union of Crystallography as the standard for data archiving and
#  transmission.
#
#  For information on this file format, follow the CIF links at
#  http://www.iucr.org
##########################################################################

data_image0

_cell_length_a                          14.872
_cell_length_b                          14.872
_cell_length_c                          15.019
_cell_angle_alpha                       90
_cell_angle_beta                        90
_cell_angle_gamma                       120
_symmetry_space_group_name_H-M          'P 1'
_symmetry_int_tables_number             1
loop_
  _symmetry_equiv_pos_as_xyz
         'x, y, z' 
loop_
  _atom_site_label
  _atom_site_occupancy
  _atom_site_fract_x
  _atom_site_fract_y
  _atom_site_fract_z
  _atom_site_thermal_displace_type
  _atom_site_B_iso_or_equiv
  _atom_site_type_symbol
  _atom_site_charge
         C1        1.0000    0.87010   0.35560   0.63970   Biso      1.000     C          0.647188  
         C2        1.0000    0.14820   0.73430   0.30220   Biso      1.000     C          -0.154189           
         C3        1.0000    0.85180   0.58610   0.80220   Biso      1.000     C          -0.153838           
         C4        1.0000    0.12990   0.48550   0.13970   Biso      1.000     C          0.647244  
         C5        1.0000    0.73430   0.14820   0.80220   Biso      1.000     C          -0.154186           
         C6        1.0000    0.35560   0.87010   0.13970   Biso      1.000     C          0.647202  
         C7        1.0000    0.41390   0.26570   0.80220   Biso      1.000     C          -0.15383  
         C8        1.0000    0.51450   0.64440   0.13970   Biso      1.000     C          0.647316  
         C9        1.0000    0.14820   0.41390   0.80220   Biso      1.000     C          -0.153839           
         C10       1.0000    0.87010   0.51450   0.13970   Biso      1.000     C          0.647245  
         C11       1.0000    0.26570   0.85180   0.80220   Biso      1.000     C          -0.154187           
         C12       1.0000    0.64440   0.12990   0.13970   Biso      1.000     C          0.647201  
         C13       1.0000    0.58610   0.73430   0.80220   Biso      1.000     C          -0.15383  
         C14       1.0000    0.48550   0.35560   0.13970   Biso      1.000     C          0.647315  
         C15       1.0000    0.26570   0.41390   0.69780   Biso      1.000     C          -0.15383  
         C16       1.0000    0.64440   0.51450   0.36030   Biso      1.000     C          0.64725   
         C17       1.0000    0.58610   0.85180   0.69780   Biso      1.000     C          -0.153822           
         C18       1.0000    0.48550   0.12990   0.36030   Biso      1.000     C          0.647309  
         C19       1.0000    0.14820   0.73430   0.69780   Biso      1.000     C          -0.154194           
         C20       1.0000    0.87010   0.35560   0.36030   Biso      1.000     C          0.647188  
         C21       1.0000    0.73430   0.58610   0.69780   Biso      1.000     C          -0.15383  
         C22       1.0000    0.35560   0.48550   0.36030   Biso      1.000     C          0.64725   
         C23       1.0000    0.41390   0.14820   0.69780   Biso      1.000     C          -0.153822           
         C24       1.0000    0.51450   0.87010   0.36030   Biso      1.000     C          0.64731   
         C25       1.0000    0.48550   0.12990   0.63970   Biso      1.000     C          0.647341  
         C26       1.0000    0.58610   0.85180   0.30220   Biso      1.000     C          -0.153789           
         C27       1.0000    0.64440   0.51450   0.63970   Biso      1.000     C          0.647277  
         C28       1.0000    0.26570   0.41390   0.30220   Biso      1.000     C          -0.153804           
         C29       1.0000    0.14820   0.41390   0.19780   Biso      1.000     C          -0.153806           
         C30       1.0000    0.87010   0.51450   0.86030   Biso      1.000     C          0.647273  
         C31       1.0000    0.26570   0.85180   0.19780   Biso      1.000     C          -0.154254           
         C32       1.0000    0.64440   0.12990   0.86030   Biso      1.000     C          0.647143  
         C33       1.0000    0.58610   0.73430   0.19780   Biso      1.000     C          -0.153795           
         C34       1.0000    0.85180   0.26570   0.69780   Biso      1.000     C          -0.154256           
         C35       1.0000    0.85180   0.58610   0.19780   Biso      1.000     C          -0.153808           
         C36       1.0000    0.12990   0.48550   0.86030   Biso      1.000     C          0.647274  
         C37       1.0000    0.73430   0.14820   0.19780   Biso      1.000     C          -0.15425  
         C38       1.0000    0.48550   0.35560   0.86030   Biso      1.000     C          0.647347  
         C39       1.0000    0.41390   0.26570   0.19780   Biso      1.000     C          -0.153797           
         C40       1.0000    0.51450   0.64440   0.86030   Biso      1.000     C          0.647347  
         C41       1.0000    0.73430   0.58610   0.30220   Biso      1.000     C          -0.153801           
         C42       1.0000    0.35560   0.48550   0.63970   Biso      1.000     C          0.647277  
         C43       1.0000    0.41390   0.14820   0.30220   Biso      1.000     C          -0.153787           
         C44       1.0000    0.51450   0.87010   0.63970   Biso      1.000     C          0.647342  
         C45       1.0000    0.85180   0.26570   0.30220   Biso      1.000     C          -0.154256           
         C46       1.0000    0.12990   0.64440   0.63970   Biso      1.000     C          0.647131  
         C47       1.0000    0.35560   0.87010   0.86030   Biso      1.000     C          0.647144  
         C48       1.0000    0.12990   0.64440   0.36030   Biso      1.000     C          0.64713   
         Cu1       1.0000    0.50000   0.00000   0.50000   Biso      1.000     Cu          1.034143  
         Cu2       1.0000    0.50000   0.50000   0.50000   Biso      1.000     Cu          1.033929  
         Cu3       1.0000    0.00000   0.50000   0.50000   Biso      1.000     Cu          1.034382  
         Cu4       1.0000    0.50000   0.00000   0.00000   Biso      1.000     Cu          1.034381  
         Cu5       1.0000    0.00000   0.50000   0.00000   Biso      1.000     Cu          1.034027  
         Cu6       1.0000    0.50000   0.50000   0.00000   Biso      1.000     Cu          1.034075  
         Eu1       1.0000    0.33333   0.66666   0.25000   Biso      1.000     Eu          1.226868  
         Eu2       1.0000    0.66667   0.33334   0.25000   Biso      1.000     Eu          1.226867  
         Eu3       1.0000    0.66667   0.33334   0.75000   Biso      1.000     Eu          1.22687   
         Eu4       1.0000    0.33333   0.66666   0.75000   Biso      1.000     Eu          1.22687   
         H1        1.0000    0.08840   0.71440   0.26420   Biso      1.000     H          0.107644  
         H2        1.0000    0.36590   0.15810   0.66110   Biso      1.000     H          0.116837  
         H3        1.0000    0.28560   0.37400   0.73580   Biso      1.000     H          0.107388  
         H4        1.0000    0.20780   0.36590   0.66110   Biso      1.000     H          0.116793  
         H5        1.0000    0.08840   0.71440   0.73580   Biso      1.000     H          0.107644  
         H6        1.0000    0.15810   0.79220   0.66110   Biso      1.000     H          0.117043  
         H7        1.0000    0.62600   0.91160   0.73580   Biso      1.000     H          0.107431  
         H8        1.0000    0.63410   0.84190   0.66110   Biso      1.000     H          0.116837  
         H9        1.0000    0.08840   0.37400   0.76420   Biso      1.000     H          0.107408  
         H10       1.0000    0.15810   0.36590   0.83890   Biso      1.000     H          0.116802  
         H11       1.0000    0.28560   0.91160   0.76420   Biso      1.000     H          0.107626  
         H12       1.0000    0.37400   0.08840   0.73580   Biso      1.000     H          0.10743   
         H13       1.0000    0.20780   0.84190   0.83890   Biso      1.000     H          0.117044  
         H14       1.0000    0.91160   0.62600   0.76420   Biso      1.000     H          0.107407  
         H15       1.0000    0.84190   0.63410   0.83890   Biso      1.000     H          0.116801  
         H16       1.0000    0.37400   0.28560   0.76420   Biso      1.000     H          0.107437  
         H17       1.0000    0.36590   0.20780   0.83890   Biso      1.000     H          0.116838  
         H18       1.0000    0.71440   0.08840   0.76420   Biso      1.000     H          0.107626  
         H19       1.0000    0.79220   0.15810   0.83890   Biso      1.000     H          0.117045  
         H20       1.0000    0.15810   0.79220   0.33890   Biso      1.000     H          0.117043  
         H21       1.0000    0.62600   0.71440   0.76420   Biso      1.000     H          0.107436  
         H22       1.0000    0.84190   0.20780   0.66110   Biso      1.000     H          0.117046  
         H23       1.0000    0.63410   0.79220   0.83890   Biso      1.000     H          0.116838  
         H24       1.0000    0.79220   0.63410   0.66110   Biso      1.000     H          0.116793  
         H25       1.0000    0.20780   0.36590   0.33890   Biso      1.000     H          0.116791  
         H26       1.0000    0.91160   0.28560   0.73580   Biso      1.000     H          0.107647  
         H27       1.0000    0.28560   0.37400   0.26420   Biso      1.000     H          0.107386  
         H28       1.0000    0.62600   0.91160   0.26420   Biso      1.000     H          0.107429  
         H29       1.0000    0.63410   0.84190   0.33890   Biso      1.000     H          0.116834  
         H30       1.0000    0.71440   0.62600   0.26420   Biso      1.000     H          0.107386  
         H31       1.0000    0.79220   0.63410   0.33890   Biso      1.000     H          0.11679   
         H32       1.0000    0.91160   0.28560   0.26420   Biso      1.000     H          0.107649  
         H33       1.0000    0.37400   0.08840   0.26420   Biso      1.000     H          0.107429  
         H34       1.0000    0.36590   0.15810   0.33890   Biso      1.000     H          0.116833  
         H35       1.0000    0.91160   0.62600   0.23580   Biso      1.000     H          0.107405  
         H36       1.0000    0.84190   0.63410   0.16110   Biso      1.000     H          0.116799  
         H37       1.0000    0.84190   0.20780   0.33890   Biso      1.000     H          0.117047  
         H38       1.0000    0.37400   0.28560   0.23580   Biso      1.000     H          0.107434  
         H39       1.0000    0.36590   0.20780   0.16110   Biso      1.000     H          0.116835  
         H40       1.0000    0.71440   0.08840   0.23580   Biso      1.000     H          0.10763   
         H41       1.0000    0.79220   0.15810   0.16110   Biso      1.000     H          0.117049  
         H42       1.0000    0.08840   0.37400   0.23580   Biso      1.000     H          0.107405  
         H43       1.0000    0.15810   0.36590   0.16110   Biso      1.000     H          0.116798  
         H44       1.0000    0.62600   0.71440   0.23580   Biso      1.000     H          0.107434  
         H45       1.0000    0.63410   0.79220   0.16110   Biso      1.000     H          0.116835  
         H46       1.0000    0.28560   0.91160   0.23580   Biso      1.000     H          0.10763   
         H47       1.0000    0.20780   0.84190   0.16110   Biso      1.000     H          0.117048  
         H48       1.0000    0.71440   0.62600   0.73580   Biso      1.000     H          0.107389  
         O1        1.0000    0.05090   0.44290   0.90910   Biso      1.000     O          -0.543833           
         O2        1.0000    0.19400   0.58040   0.85720   Biso      1.000     O          -0.550335           
         O3        1.0000    0.39200   0.94910   0.90910   Biso      1.000     O          -0.54396  
         O4        1.0000    0.38640   0.80600   0.85720   Biso      1.000     O          -0.550073           
         O5        1.0000    0.55710   0.60800   0.90910   Biso      1.000     O          -0.543863           
         O6        1.0000    0.55710   0.94910   0.59090   Biso      1.000     O          -0.543744           
         O7        1.0000    0.05090   0.60800   0.59090   Biso      1.000     O          -0.543946           
         O8        1.0000    0.39200   0.44290   0.59090   Biso      1.000     O          -0.543953           
         O9        1.0000    0.38640   0.58040   0.64280   Biso      1.000     O          -0.550285           
         O10       1.0000    0.41960   0.80600   0.64280   Biso      1.000     O          -0.550311           
         O11       1.0000    0.58040   0.38640   0.85720   Biso      1.000     O          -0.550213           
         O12       1.0000    0.41960   0.61360   0.85720   Biso      1.000     O          -0.550214           
         O13       1.0000    0.44290   0.39200   0.90910   Biso      1.000     O          -0.543864           
         O14       1.0000    0.52680   0.76340   0.25000   Biso      1.000     O          -0.173299           
         O15       1.0000    0.60800   0.05090   0.90910   Biso      1.000     O          -0.54396  
         O16       1.0000    0.80600   0.41960   0.85720   Biso      1.000     O          -0.550335           
         O17       1.0000    0.94910   0.55710   0.90910   Biso      1.000     O          -0.543833           
         O18       1.0000    0.76340   0.23660   0.75000   Biso      1.000     O          -0.173052           
         O19       1.0000    0.47320   0.23660   0.75000   Biso      1.000     O          -0.173293           
         O20       1.0000    0.76340   0.52680   0.75000   Biso      1.000     O          -0.173315           
         O21       1.0000    0.23660   0.76340   0.75000   Biso      1.000     O          -0.173058           
         O22       1.0000    0.52680   0.76340   0.75000   Biso      1.000     O          -0.173293           
         O23       1.0000    0.23660   0.47320   0.75000   Biso      1.000     O          -0.173315           
         O24       1.0000    0.23660   0.76340   0.25000   Biso      1.000     O          -0.173052           
         O25       1.0000    0.23660   0.47320   0.25000   Biso      1.000     O          -0.173321           
         O26       1.0000    0.19400   0.61360   0.64280   Biso      1.000     O          -0.550019           
         O27       1.0000    0.76340   0.23660   0.25000   Biso      1.000     O          -0.173046           
         O28       1.0000    0.61360   0.19400   0.85720   Biso      1.000     O          -0.550074           
         O29       1.0000    0.60800   0.55710   0.59090   Biso      1.000     O          -0.543954           
         O30       1.0000    0.38640   0.58040   0.35720   Biso      1.000     O          -0.550282           
         O31       1.0000    0.44290   0.05090   0.59090   Biso      1.000     O          -0.543744           
         O32       1.0000    0.47320   0.23660   0.25000   Biso      1.000     O          -0.173298           
         O33       1.0000    0.19400   0.61360   0.35720   Biso      1.000     O          -0.550019           
         O34       1.0000    0.05090   0.60800   0.40910   Biso      1.000     O          -0.543946           
         O35       1.0000    0.41960   0.80600   0.35720   Biso      1.000     O          -0.550307           
         O36       1.0000    0.55710   0.94910   0.40910   Biso      1.000     O          -0.543742           
         O37       1.0000    0.39200   0.44290   0.40910   Biso      1.000     O          -0.54395  
         O38       1.0000    0.80600   0.38640   0.35720   Biso      1.000     O          -0.550025           
         O39       1.0000    0.94910   0.39200   0.40910   Biso      1.000     O          -0.543951           
         O40       1.0000    0.58040   0.19400   0.35720   Biso      1.000     O          -0.550307           
         O41       1.0000    0.44290   0.05090   0.40910   Biso      1.000     O          -0.543742           
         O42       1.0000    0.61360   0.41960   0.35720   Biso      1.000     O          -0.550282           
         O43       1.0000    0.60800   0.55710   0.40910   Biso      1.000     O          -0.543951           
         O44       1.0000    0.58040   0.38640   0.14280   Biso      1.000     O          -0.55021  
         O45       1.0000    0.44290   0.39200   0.09090   Biso      1.000     O          -0.543862           
         O46       1.0000    0.61360   0.19400   0.14280   Biso      1.000     O          -0.55008  
         O47       1.0000    0.60800   0.05090   0.09090   Biso      1.000     O          -0.543964           
         O48       1.0000    0.80600   0.41960   0.14280   Biso      1.000     O          -0.550331           
         O49       1.0000    0.94910   0.55710   0.09090   Biso      1.000     O          -0.54383  
         O50       1.0000    0.41960   0.61360   0.14280   Biso      1.000     O          -0.55021  
         O51       1.0000    0.55710   0.60800   0.09090   Biso      1.000     O          -0.543863           
         O52       1.0000    0.38640   0.80600   0.14280   Biso      1.000     O          -0.55008  
         O53       1.0000    0.39200   0.94910   0.09090   Biso      1.000     O          -0.543964           
         O54       1.0000    0.19400   0.58040   0.14280   Biso      1.000     O          -0.550332           
         O55       1.0000    0.05090   0.44290   0.09090   Biso      1.000     O          -0.54383  
         O56       1.0000    0.80600   0.38640   0.64280   Biso      1.000     O          -0.550025           
         O57       1.0000    0.94910   0.39200   0.59090   Biso      1.000     O          -0.54395  
         O58       1.0000    0.58040   0.19400   0.64280   Biso      1.000     O          -0.55031  
         O59       1.0000    0.61360   0.41960   0.64280   Biso      1.000     O          -0.550284           
         O60       1.0000    0.76340   0.52680   0.25000   Biso      1.000     O          -0.17332 