
##########################################################################
#               Crystallographic Information Format file
#               Produced by PyCifRW module
#
#  This is a CIF file.  CIF has been adopted by the International
#  Union of Crystallography as the standard for data archiving and
#  transmission.
#
#  For information on this file format, follow the CIF links at
#  http://www.iucr.org
##########################################################################

data_image0

_cell_length_a                          14.4783
_cell_length_b                          14.4783
_cell_length_c                          15.293
_cell_angle_alpha                       90
_cell_angle_beta                        90
_cell_angle_gamma                       120
_symmetry_space_group_name_H-M          'P 1'
_symmetry_int_tables_number             1
loop_
  _symmetry_equiv_pos_as_xyz
         'x, y, z' 
loop_
  _atom_site_label
  _atom_site_occupancy
  _atom_site_fract_x
  _atom_site_fract_y
  _atom_site_fract_z
  _atom_site_thermal_displace_type
  _atom_site_B_iso_or_equiv
  _atom_site_type_symbol
  _atom_site_charge
         C1        1.0000    0.86890   0.51650   0.63810   Biso      1.000     C          0.676693  
         C2        1.0000    0.25990   0.40580   0.80460   Biso      1.000     C          -0.156365           
         C3        1.0000    0.35240   0.48350   0.86190   Biso      1.000     C          0.676712  
         C4        1.0000    0.14590   0.74010   0.80460   Biso      1.000     C          -0.156355           
         C5        1.0000    0.13110   0.48350   0.63810   Biso      1.000     C          0.676693  
         C6        1.0000    0.51650   0.86890   0.13810   Biso      1.000     C          0.6766909999999999  
         C7        1.0000    0.59420   0.85410   0.19540   Biso      1.000     C          -0.156372           
         C8        1.0000    0.13110   0.64760   0.86190   Biso      1.000     C          0.676687  
         C9        1.0000    0.85410   0.59420   0.30460   Biso      1.000     C          -0.156371           
         C10       1.0000    0.35240   0.86890   0.36190   Biso      1.000     C          0.676687  
         C11       1.0000    0.35240   0.48350   0.13810   Biso      1.000     C          0.676712  
         C12       1.0000    0.25990   0.85410   0.30460   Biso      1.000     C          -0.156355           
         C13       1.0000    0.86890   0.51650   0.36190   Biso      1.000     C          0.676693  
         C14       1.0000    0.51650   0.64760   0.36190   Biso      1.000     C          0.676711  
         C15       1.0000    0.59420   0.74010   0.30460   Biso      1.000     C          -0.156366           
         C16       1.0000    0.40580   0.25990   0.30460   Biso      1.000     C          -0.156368           
         C17       1.0000    0.48350   0.35240   0.36190   Biso      1.000     C          0.676712  
         C18       1.0000    0.13110   0.48350   0.36190   Biso      1.000     C          0.676693  
         C19       1.0000    0.85410   0.59420   0.69540   Biso      1.000     C          -0.156372           
         C20       1.0000    0.14590   0.40580   0.30460   Biso      1.000     C          -0.156372           
         C21       1.0000    0.74010   0.14590   0.30460   Biso      1.000     C          -0.156355           
         C22       1.0000    0.14590   0.40580   0.69540   Biso      1.000     C          -0.156371           
         C23       1.0000    0.59420   0.74010   0.69540   Biso      1.000     C          -0.156368           
         C24       1.0000    0.25990   0.40580   0.19540   Biso      1.000     C          -0.156366           
         C25       1.0000    0.59420   0.85410   0.80460   Biso      1.000     C          -0.156373           
         C26       1.0000    0.86890   0.35240   0.13810   Biso      1.000     C          0.676688  
         C27       1.0000    0.40580   0.25990   0.69540   Biso      1.000     C          -0.156366           
         C28       1.0000    0.85410   0.25990   0.19540   Biso      1.000     C          -0.156355           
         C29       1.0000    0.48350   0.35240   0.63810   Biso      1.000     C          0.676711  
         C30       1.0000    0.74010   0.14590   0.69540   Biso      1.000     C          -0.156355           
         C31       1.0000    0.64760   0.13110   0.63810   Biso      1.000     C          0.676687  
         C32       1.0000    0.64760   0.51650   0.13810   Biso      1.000     C          0.676712  
         C33       1.0000    0.35240   0.86890   0.63810   Biso      1.000     C          0.676686  
         C34       1.0000    0.74010   0.59420   0.19540   Biso      1.000     C          -0.156366           
         C35       1.0000    0.40580   0.14590   0.80460   Biso      1.000     C          -0.156372           
         C36       1.0000    0.51650   0.86890   0.86190   Biso      1.000     C          0.676692  
         C37       1.0000    0.25990   0.85410   0.69540   Biso      1.000     C          -0.156355           
         C38       1.0000    0.48350   0.13110   0.86190   Biso      1.000     C          0.6766909999999999  
         C39       1.0000    0.85410   0.25990   0.80460   Biso      1.000     C          -0.156356           
         C40       1.0000    0.14590   0.74010   0.19540   Biso      1.000     C          -0.156357           
         C41       1.0000    0.51650   0.64760   0.63810   Biso      1.000     C          0.676712  
         C42       1.0000    0.13110   0.64760   0.13810   Biso      1.000     C          0.676687  
         C43       1.0000    0.86890   0.35240   0.86190   Biso      1.000     C          0.676687  
         C44       1.0000    0.64760   0.51650   0.86190   Biso      1.000     C          0.676712  
         C45       1.0000    0.64760   0.13110   0.36190   Biso      1.000     C          0.676686  
         C46       1.0000    0.40580   0.14590   0.19540   Biso      1.000     C          -0.156373           
         C47       1.0000    0.74010   0.59420   0.80460   Biso      1.000     C          -0.156366           
         C48       1.0000    0.48350   0.13110   0.13810   Biso      1.000     C          0.676692  
         Cu1       1.0000    0.00000   0.50000   0.50000   Biso      1.000     Cu          0.963986  
         Cu2       1.0000    0.50000   0.50000   0.50000   Biso      1.000     Cu          0.9639840000000001  
         Cu3       1.0000    0.50000   0.00000   0.00000   Biso      1.000     Cu          0.963989  
         Cu4       1.0000    0.00000   0.50000   0.00000   Biso      1.000     Cu          0.963993  
         Cu5       1.0000    0.50000   0.50000   0.00000   Biso      1.000     Cu          0.963983  
         Cu6       1.0000    0.50000   0.00000   0.50000   Biso      1.000     Cu          0.9639909999999999  
         Gd1       1.0000    0.33333   0.66667   0.25000   Biso      1.000     Gd          1.959571  
         Gd2       1.0000    0.66667   0.33333   0.25000   Biso      1.000     Gd          1.959572  
         Gd3       1.0000    0.33333   0.66667   0.75000   Biso      1.000     Gd          1.959571  
         Gd4       1.0000    0.66667   0.33333   0.75000   Biso      1.000     Gd          1.959572  
         H1        1.0000    0.08130   0.36210   0.26880   Biso      1.000     H          0.10721199999999999           
         H2        1.0000    0.15990   0.80240   0.15910   Biso      1.000     H          0.121288  
         H3        1.0000    0.63790   0.91870   0.76880   Biso      1.000     H          0.10721199999999999           
         H4        1.0000    0.36210   0.08130   0.23120   Biso      1.000     H          0.10721199999999999           
         H5        1.0000    0.84010   0.19760   0.84090   Biso      1.000     H          0.121288  
         H6        1.0000    0.91870   0.28080   0.76880   Biso      1.000     H          0.10721800000000001           
         H7        1.0000    0.28080   0.91870   0.73120   Biso      1.000     H          0.107217  
         H8        1.0000    0.35750   0.15990   0.15910   Biso      1.000     H          0.12128299999999999           
         H9        1.0000    0.19760   0.84010   0.65910   Biso      1.000     H          0.12128299999999999           
         H10       1.0000    0.80240   0.64250   0.84090   Biso      1.000     H          0.121276  
         H11       1.0000    0.71920   0.63790   0.76880   Biso      1.000     H          0.10721199999999999           
         H12       1.0000    0.71920   0.63790   0.23120   Biso      1.000     H          0.10721199999999999           
         H13       1.0000    0.80240   0.64250   0.15910   Biso      1.000     H          0.121275  
         H14       1.0000    0.35750   0.15990   0.84090   Biso      1.000     H          0.12128199999999999           
         H15       1.0000    0.36210   0.08130   0.76880   Biso      1.000     H          0.10721099999999999           
         H16       1.0000    0.91870   0.28080   0.23120   Biso      1.000     H          0.107217  
         H17       1.0000    0.80240   0.15990   0.65910   Biso      1.000     H          0.12128399999999999           
         H18       1.0000    0.71920   0.08130   0.73120   Biso      1.000     H          0.107217  
         H19       1.0000    0.91870   0.63790   0.73120   Biso      1.000     H          0.10721199999999999           
         H20       1.0000    0.84010   0.19760   0.15910   Biso      1.000     H          0.12128699999999999           
         H21       1.0000    0.84010   0.64250   0.65910   Biso      1.000     H          0.12128399999999999           
         H22       1.0000    0.35750   0.19760   0.65910   Biso      1.000     H          0.121276  
         H23       1.0000    0.36210   0.28080   0.73120   Biso      1.000     H          0.10721300000000002           
         H24       1.0000    0.08130   0.71920   0.23120   Biso      1.000     H          0.10721800000000001           
         H25       1.0000    0.28080   0.36210   0.76880   Biso      1.000     H          0.10721199999999999           
         H26       1.0000    0.64250   0.84010   0.84090   Biso      1.000     H          0.12128299999999999           
         H27       1.0000    0.19760   0.35750   0.84090   Biso      1.000     H          0.121275  
         H28       1.0000    0.28080   0.91870   0.26880   Biso      1.000     H          0.107217  
         H29       1.0000    0.19760   0.84010   0.34090   Biso      1.000     H          0.12128399999999999           
         H30       1.0000    0.63790   0.91870   0.23120   Biso      1.000     H          0.10721099999999999           
         H31       1.0000    0.64250   0.80240   0.65910   Biso      1.000     H          0.121277  
         H32       1.0000    0.84010   0.64250   0.34090   Biso      1.000     H          0.12128399999999999           
         H33       1.0000    0.91870   0.63790   0.26880   Biso      1.000     H          0.10721099999999999           
         H34       1.0000    0.36210   0.28080   0.26880   Biso      1.000     H          0.10721300000000002           
         H35       1.0000    0.35750   0.19760   0.34090   Biso      1.000     H          0.121278  
         H36       1.0000    0.64250   0.84010   0.15910   Biso      1.000     H          0.121281  
         H37       1.0000    0.15990   0.35750   0.65910   Biso      1.000     H          0.12128299999999999           
         H38       1.0000    0.64250   0.80240   0.34090   Biso      1.000     H          0.121276  
         H39       1.0000    0.15990   0.80240   0.84090   Biso      1.000     H          0.12128599999999999           
         H40       1.0000    0.08130   0.71920   0.76880   Biso      1.000     H          0.107217  
         H41       1.0000    0.08130   0.36210   0.73120   Biso      1.000     H          0.10721099999999999           
         H42       1.0000    0.63790   0.71920   0.26880   Biso      1.000     H          0.10721199999999999           
         H43       1.0000    0.71920   0.08130   0.26880   Biso      1.000     H          0.107217  
         H44       1.0000    0.19760   0.35750   0.15910   Biso      1.000     H          0.121276  
         H45       1.0000    0.63790   0.71920   0.73120   Biso      1.000     H          0.10721300000000002           
         H46       1.0000    0.80240   0.15990   0.34090   Biso      1.000     H          0.12128399999999999           
         H47       1.0000    0.15990   0.35750   0.34090   Biso      1.000     H          0.12128399999999999           
         H48       1.0000    0.28080   0.36210   0.23120   Biso      1.000     H          0.10721199999999999           
         O1        1.0000    0.76480   0.23520   0.75000   Biso      1.000     O          -0.24393  
         O2        1.0000    0.38650   0.94670   0.58990   Biso      1.000     O          -0.561867           
         O3        1.0000    0.52960   0.76480   0.75000   Biso      1.000     O          -0.243862           
         O4        1.0000    0.47040   0.23520   0.25000   Biso      1.000     O          -0.243862           
         O5        1.0000    0.38620   0.80580   0.64440   Biso      1.000     O          -0.6325850000000001           
         O6        1.0000    0.52960   0.76480   0.25000   Biso      1.000     O          -0.243865           
         O7        1.0000    0.19420   0.58040   0.64440   Biso      1.000     O          -0.6325970000000001           
         O8        1.0000    0.76480   0.23520   0.25000   Biso      1.000     O          -0.24393099999999998          
         O9        1.0000    0.56020   0.61350   0.58990   Biso      1.000     O          -0.561875           
         O10       1.0000    0.23520   0.47040   0.25000   Biso      1.000     O          -0.243865           
         O11       1.0000    0.23520   0.76480   0.25000   Biso      1.000     O          -0.243929           
         O12       1.0000    0.05330   0.43980   0.58990   Biso      1.000     O          -0.561873           
         O13       1.0000    0.41960   0.61380   0.64440   Biso      1.000     O          -0.632633           
         O14       1.0000    0.76480   0.52960   0.25000   Biso      1.000     O          -0.24386599999999997          
         O15       1.0000    0.23520   0.47040   0.75000   Biso      1.000     O          -0.24386599999999997          
         O16       1.0000    0.23520   0.76480   0.75000   Biso      1.000     O          -0.24393099999999998          
         O17       1.0000    0.94670   0.38650   0.08990   Biso      1.000     O          -0.561867           
         O18       1.0000    0.94670   0.56020   0.58990   Biso      1.000     O          -0.561873           
         O19       1.0000    0.61350   0.05330   0.41010   Biso      1.000     O          -0.561867           
         O20       1.0000    0.19420   0.58040   0.35560   Biso      1.000     O          -0.6325970000000001           
         O21       1.0000    0.05330   0.43980   0.41010   Biso      1.000     O          -0.561873           
         O22       1.0000    0.41960   0.61380   0.35560   Biso      1.000     O          -0.632633           
         O23       1.0000    0.56020   0.61350   0.41010   Biso      1.000     O          -0.561875           
         O24       1.0000    0.38620   0.80580   0.35560   Biso      1.000     O          -0.632586           
         O25       1.0000    0.38650   0.94670   0.41010   Biso      1.000     O          -0.561867           
         O26       1.0000    0.41960   0.80580   0.14440   Biso      1.000     O          -0.6325970000000001           
         O27       1.0000    0.61380   0.19420   0.35560   Biso      1.000     O          -0.632586           
         O28       1.0000    0.56020   0.94670   0.08990   Biso      1.000     O          -0.561871           
         O29       1.0000    0.38650   0.43980   0.08990   Biso      1.000     O          -0.5618770000000001           
         O30       1.0000    0.19420   0.61380   0.14440   Biso      1.000     O          -0.632584           
         O31       1.0000    0.05330   0.61350   0.08990   Biso      1.000     O          -0.561867           
         O32       1.0000    0.58040   0.19420   0.14440   Biso      1.000     O          -0.6325970000000001           
         O33       1.0000    0.43980   0.05330   0.08990   Biso      1.000     O          -0.561871           
         O34       1.0000    0.61380   0.41960   0.14440   Biso      1.000     O          -0.632634           
         O35       1.0000    0.61350   0.56020   0.08990   Biso      1.000     O          -0.5618770000000001           
         O36       1.0000    0.80580   0.38620   0.14440   Biso      1.000     O          -0.6325850000000001           
         O37       1.0000    0.38620   0.58040   0.14440   Biso      1.000     O          -0.632634           
         O38       1.0000    0.80580   0.41960   0.64440   Biso      1.000     O          -0.6325970000000001           
         O39       1.0000    0.43980   0.38650   0.41010   Biso      1.000     O          -0.561875           
         O40       1.0000    0.94670   0.56020   0.41010   Biso      1.000     O          -0.561873           
         O41       1.0000    0.58040   0.38620   0.64440   Biso      1.000     O          -0.632633           
         O42       1.0000    0.43980   0.38650   0.58990   Biso      1.000     O          -0.561875           
         O43       1.0000    0.61380   0.19420   0.64440   Biso      1.000     O          -0.632586           
         O44       1.0000    0.61350   0.05330   0.58990   Biso      1.000     O          -0.561867           
         O45       1.0000    0.58040   0.19420   0.85560   Biso      1.000     O          -0.6325970000000001           
         O46       1.0000    0.43980   0.05330   0.91010   Biso      1.000     O          -0.561871           
         O47       1.0000    0.61380   0.41960   0.85560   Biso      1.000     O          -0.632634           
         O48       1.0000    0.61350   0.56020   0.91010   Biso      1.000     O          -0.5618770000000001           
         O49       1.0000    0.58040   0.38620   0.35560   Biso      1.000     O          -0.632633           
         O50       1.0000    0.80580   0.38620   0.85560   Biso      1.000     O          -0.632584           
         O51       1.0000    0.41960   0.80580   0.85560   Biso      1.000     O          -0.6325970000000001           
         O52       1.0000    0.56020   0.94670   0.91010   Biso      1.000     O          -0.561871           
         O53       1.0000    0.76480   0.52960   0.75000   Biso      1.000     O          -0.243865           
         O54       1.0000    0.38620   0.58040   0.85560   Biso      1.000     O          -0.632634           
         O55       1.0000    0.38650   0.43980   0.91010   Biso      1.000     O          -0.5618770000000001           
         O56       1.0000    0.19420   0.61380   0.85560   Biso      1.000     O          -0.632584           
         O57       1.0000    0.05330   0.61350   0.91010   Biso      1.000     O          -0.561867           
         O58       1.0000    0.80580   0.41960   0.35560   Biso      1.000     O          -0.6325970000000001           
         O59       1.0000    0.94670   0.38650   0.91010   Biso      1.000     O          -0.561867           
         O60       1.0000    0.47040   0.23520   0.75000   Biso      1.000     O          -0.243864 