
##########################################################################
#               Crystallographic Information Format file
#               Produced by PyCifRW module
#
#  This is a CIF file.  CIF has been adopted by the International
#  Union of Crystallography as the standard for data archiving and
#  transmission.
#
#  For information on this file format, follow the CIF links at
#  http://www.iucr.org
##########################################################################

data_image0

_cell_length_a                          14.717
_cell_length_b                          14.717
_cell_length_c                          15.169
_cell_angle_alpha                       90
_cell_angle_beta                        90
_cell_angle_gamma                       120
_symmetry_space_group_name_H-M          'P 1'
_symmetry_int_tables_number             1
loop_
  _symmetry_equiv_pos_as_xyz
         'x, y, z' 
loop_
  _atom_site_label
  _atom_site_occupancy
  _atom_site_fract_x
  _atom_site_fract_y
  _atom_site_fract_z
  _atom_site_thermal_displace_type
  _atom_site_B_iso_or_equiv
  _atom_site_type_symbol
  _atom_site_charge
         C1        1.0000    0.87040   0.35530   0.63900   Biso      1.000     C          0.669196  
         C2        1.0000    0.14760   0.73530   0.30330   Biso      1.000     C          -0.160673           
         C3        1.0000    0.85240   0.58770   0.80330   Biso      1.000     C          -0.160679           
         C4        1.0000    0.12960   0.48490   0.13900   Biso      1.000     C          0.669187  
         C5        1.0000    0.73530   0.14760   0.80330   Biso      1.000     C          -0.160668           
         C6        1.0000    0.35530   0.87040   0.13900   Biso      1.000     C          0.669179  
         C7        1.0000    0.41230   0.26470   0.80330   Biso      1.000     C          -0.160672           
         C8        1.0000    0.51510   0.64470   0.13900   Biso      1.000     C          0.669196  
         C9        1.0000    0.14760   0.41230   0.80330   Biso      1.000     C          -0.160678           
         C10       1.0000    0.87040   0.51510   0.13900   Biso      1.000     C          0.669188  
         C11       1.0000    0.26470   0.85240   0.80330   Biso      1.000     C          -0.160666           
         C12       1.0000    0.64470   0.12960   0.13900   Biso      1.000     C          0.669178  
         C13       1.0000    0.58770   0.73530   0.80330   Biso      1.000     C          -0.160674           
         C14       1.0000    0.48490   0.35530   0.13900   Biso      1.000     C          0.669195  
         C15       1.0000    0.26470   0.41230   0.69670   Biso      1.000     C          -0.160679           
         C16       1.0000    0.64470   0.51510   0.36100   Biso      1.000     C          0.669187  
         C17       1.0000    0.58770   0.85240   0.69670   Biso      1.000     C          -0.160669           
         C18       1.0000    0.48490   0.12960   0.36100   Biso      1.000     C          0.669178  
         C19       1.0000    0.14760   0.73530   0.69670   Biso      1.000     C          -0.160672           
         C20       1.0000    0.87040   0.35530   0.36100   Biso      1.000     C          0.669195  
         C21       1.0000    0.73530   0.58770   0.69670   Biso      1.000     C          -0.16068  
         C22       1.0000    0.35530   0.48490   0.36100   Biso      1.000     C          0.669188  
         C23       1.0000    0.41230   0.14760   0.69670   Biso      1.000     C          -0.160668           
         C24       1.0000    0.51510   0.87040   0.36100   Biso      1.000     C          0.669177  
         C25       1.0000    0.48490   0.12960   0.63900   Biso      1.000     C          0.669177  
         C26       1.0000    0.58770   0.85240   0.30330   Biso      1.000     C          -0.160668           
         C27       1.0000    0.64470   0.51510   0.63900   Biso      1.000     C          0.669189  
         C28       1.0000    0.26470   0.41230   0.30330   Biso      1.000     C          -0.160679           
         C29       1.0000    0.14760   0.41230   0.19670   Biso      1.000     C          -0.160678           
         C30       1.0000    0.87040   0.51510   0.86100   Biso      1.000     C          0.669188  
         C31       1.0000    0.26470   0.85240   0.19670   Biso      1.000     C          -0.160667           
         C32       1.0000    0.64470   0.12960   0.86100   Biso      1.000     C          0.66918   
         C33       1.0000    0.58770   0.73530   0.19670   Biso      1.000     C          -0.160672           
         C34       1.0000    0.85240   0.26470   0.69670   Biso      1.000     C          -0.160673           
         C35       1.0000    0.85240   0.58770   0.19670   Biso      1.000     C          -0.160678           
         C36       1.0000    0.12960   0.48490   0.86100   Biso      1.000     C          0.669188  
         C37       1.0000    0.73530   0.14760   0.19670   Biso      1.000     C          -0.160666           
         C38       1.0000    0.48490   0.35530   0.86100   Biso      1.000     C          0.669195  
         C39       1.0000    0.41230   0.26470   0.19670   Biso      1.000     C          -0.160674           
         C40       1.0000    0.51510   0.64470   0.86100   Biso      1.000     C          0.669196  
         C41       1.0000    0.73530   0.58770   0.30330   Biso      1.000     C          -0.16068  
         C42       1.0000    0.35530   0.48490   0.63900   Biso      1.000     C          0.669188  
         C43       1.0000    0.41230   0.14760   0.30330   Biso      1.000     C          -0.160668           
         C44       1.0000    0.51510   0.87040   0.63900   Biso      1.000     C          0.669178  
         C45       1.0000    0.85240   0.26470   0.30330   Biso      1.000     C          -0.160671           
         C46       1.0000    0.12960   0.64470   0.63900   Biso      1.000     C          0.669195  
         C47       1.0000    0.35530   0.87040   0.86100   Biso      1.000     C          0.669179  
         C48       1.0000    0.12960   0.64470   0.36100   Biso      1.000     C          0.669196  
         Cu1       1.0000    0.50000   0.00000   0.50000   Biso      1.000     Cu          0.986683  
         Cu2       1.0000    0.50000   0.50000   0.50000   Biso      1.000     Cu          0.986681  
         Cu3       1.0000    0.00000   0.50000   0.50000   Biso      1.000     Cu          0.986678  
         Cu4       1.0000    0.50000   0.00000   0.00000   Biso      1.000     Cu          0.986683  
         Cu5       1.0000    0.00000   0.50000   0.00000   Biso      1.000     Cu          0.986683  
         Cu6       1.0000    0.50000   0.50000   0.00000   Biso      1.000     Cu          0.986675  
         Gd1       1.0000    0.33333   0.66666   0.25000   Biso      1.000     Gd          1.948866  
         Gd2       1.0000    0.66667   0.33334   0.25000   Biso      1.000     Gd          1.948866  
         Gd3       1.0000    0.66667   0.33334   0.75000   Biso      1.000     Gd          1.948866  
         Gd4       1.0000    0.33333   0.66666   0.75000   Biso      1.000     Gd          1.948866  
         H1        1.0000    0.08640   0.71520   0.26670   Biso      1.000     H          0.110279  
         H2        1.0000    0.36450   0.15880   0.66040   Biso      1.000     H          0.122761  
         H3        1.0000    0.28480   0.37120   0.73330   Biso      1.000     H          0.110284  
         H4        1.0000    0.20570   0.36450   0.66040   Biso      1.000     H          0.122767  
         H5        1.0000    0.08640   0.71520   0.73330   Biso      1.000     H          0.110279  
         H6        1.0000    0.15880   0.79430   0.66040   Biso      1.000     H          0.122764  
         H7        1.0000    0.62880   0.91360   0.73330   Biso      1.000     H          0.110281  
         H8        1.0000    0.63550   0.84120   0.66040   Biso      1.000     H          0.122762  
         H9        1.0000    0.08640   0.37120   0.76670   Biso      1.000     H          0.110283  
         H10       1.0000    0.15880   0.36450   0.83960   Biso      1.000     H          0.122763  
         H11       1.0000    0.28480   0.91360   0.76670   Biso      1.000     H          0.11028   
         H12       1.0000    0.37120   0.08640   0.73330   Biso      1.000     H          0.11028   
         H13       1.0000    0.20570   0.84120   0.83960   Biso      1.000     H          0.122758  
         H14       1.0000    0.91360   0.62880   0.76670   Biso      1.000     H          0.110284  
         H15       1.0000    0.84120   0.63550   0.83960   Biso      1.000     H          0.122765  
         H16       1.0000    0.37120   0.28480   0.76670   Biso      1.000     H          0.110279  
         H17       1.0000    0.36450   0.20570   0.83960   Biso      1.000     H          0.122765  
         H18       1.0000    0.71520   0.08640   0.76670   Biso      1.000     H          0.11028   
         H19       1.0000    0.79430   0.15880   0.83960   Biso      1.000     H          0.12276   
         H20       1.0000    0.15880   0.79430   0.33960   Biso      1.000     H          0.122765  
         H21       1.0000    0.62880   0.71520   0.76670   Biso      1.000     H          0.11028   
         H22       1.0000    0.84120   0.20570   0.66040   Biso      1.000     H          0.122766  
         H23       1.0000    0.63550   0.79430   0.83960   Biso      1.000     H          0.122768  
         H24       1.0000    0.79430   0.63550   0.66040   Biso      1.000     H          0.122767  
         H25       1.0000    0.20570   0.36450   0.33960   Biso      1.000     H          0.122767  
         H26       1.0000    0.91360   0.28480   0.73330   Biso      1.000     H          0.110279  
         H27       1.0000    0.28480   0.37120   0.26670   Biso      1.000     H          0.110283  
         H28       1.0000    0.62880   0.91360   0.26670   Biso      1.000     H          0.11028   
         H29       1.0000    0.63550   0.84120   0.33960   Biso      1.000     H          0.12276   
         H30       1.0000    0.71520   0.62880   0.26670   Biso      1.000     H          0.110284  
         H31       1.0000    0.79430   0.63550   0.33960   Biso      1.000     H          0.122766  
         H32       1.0000    0.91360   0.28480   0.26670   Biso      1.000     H          0.110278  
         H33       1.0000    0.37120   0.08640   0.26670   Biso      1.000     H          0.11028   
         H34       1.0000    0.36450   0.15880   0.33960   Biso      1.000     H          0.122762  
         H35       1.0000    0.91360   0.62880   0.23330   Biso      1.000     H          0.110283  
         H36       1.0000    0.84120   0.63550   0.16040   Biso      1.000     H          0.122764  
         H37       1.0000    0.84120   0.20570   0.33960   Biso      1.000     H          0.122763  
         H38       1.0000    0.37120   0.28480   0.23330   Biso      1.000     H          0.11028   
         H39       1.0000    0.36450   0.20570   0.16040   Biso      1.000     H          0.122766  
         H40       1.0000    0.71520   0.08640   0.23330   Biso      1.000     H          0.110279  
         H41       1.0000    0.79430   0.15880   0.16040   Biso      1.000     H          0.122758  
         H42       1.0000    0.08640   0.37120   0.23330   Biso      1.000     H          0.110283  
         H43       1.0000    0.15880   0.36450   0.16040   Biso      1.000     H          0.122763  
         H44       1.0000    0.62880   0.71520   0.23330   Biso      1.000     H          0.110279  
         H45       1.0000    0.63550   0.79430   0.16040   Biso      1.000     H          0.122766  
         H46       1.0000    0.28480   0.91360   0.23330   Biso      1.000     H          0.11028   
         H47       1.0000    0.20570   0.84120   0.16040   Biso      1.000     H          0.122759  
         H48       1.0000    0.71520   0.62880   0.73330   Biso      1.000     H          0.110284  
         O1        1.0000    0.05110   0.44140   0.91000   Biso      1.000     O          -0.567052           
         O2        1.0000    0.19410   0.58106   0.85658   Biso      1.000     O          -0.631891           
         O3        1.0000    0.39030   0.94890   0.91000   Biso      1.000     O          -0.567058           
         O4        1.0000    0.38696   0.80590   0.85658   Biso      1.000     O          -0.631866           
         O5        1.0000    0.55860   0.60970   0.91000   Biso      1.000     O          -0.567055           
         O6        1.0000    0.55860   0.94890   0.59000   Biso      1.000     O          -0.567058           
         O7        1.0000    0.05110   0.60970   0.59000   Biso      1.000     O          -0.567056           
         O8        1.0000    0.39030   0.44140   0.59000   Biso      1.000     O          -0.567052           
         O9        1.0000    0.38696   0.58106   0.64342   Biso      1.000     O          -0.63189  
         O10       1.0000    0.41894   0.80590   0.64342   Biso      1.000     O          -0.631866           
         O11       1.0000    0.58106   0.38696   0.85658   Biso      1.000     O          -0.631901           
         O12       1.0000    0.41894   0.61304   0.85658   Biso      1.000     O          -0.6319   
         O13       1.0000    0.44140   0.39030   0.91000   Biso      1.000     O          -0.567054           
         O14       1.0000    0.52820   0.76410   0.25000   Biso      1.000     O          -0.228214           
         O15       1.0000    0.60970   0.05110   0.91000   Biso      1.000     O          -0.567058           
         O16       1.0000    0.80590   0.41894   0.85658   Biso      1.000     O          -0.631891           
         O17       1.0000    0.94890   0.55860   0.91000   Biso      1.000     O          -0.567052           
         O18       1.0000    0.76410   0.23590   0.75000   Biso      1.000     O          -0.228212           
         O19       1.0000    0.47180   0.23590   0.75000   Biso      1.000     O          -0.228214           
         O20       1.0000    0.76410   0.52820   0.75000   Biso      1.000     O          -0.228162           
         O21       1.0000    0.23590   0.76410   0.75000   Biso      1.000     O          -0.228214           
         O22       1.0000    0.52820   0.76410   0.75000   Biso      1.000     O          -0.228213           
         O23       1.0000    0.23590   0.47180   0.75000   Biso      1.000     O          -0.228163           
         O24       1.0000    0.23590   0.76410   0.25000   Biso      1.000     O          -0.228213           
         O25       1.0000    0.23590   0.47180   0.25000   Biso      1.000     O          -0.228164           
         O26       1.0000    0.19410   0.61304   0.64342   Biso      1.000     O          -0.631902           
         O27       1.0000    0.76410   0.23590   0.25000   Biso      1.000     O          -0.228215           
         O28       1.0000    0.61304   0.19410   0.85658   Biso      1.000     O          -0.631866           
         O29       1.0000    0.60970   0.55860   0.59000   Biso      1.000     O          -0.567052           
         O30       1.0000    0.38696   0.58106   0.35658   Biso      1.000     O          -0.63189  
         O31       1.0000    0.44140   0.05110   0.59000   Biso      1.000     O          -0.567058           
         O32       1.0000    0.47180   0.23590   0.25000   Biso      1.000     O          -0.228213           
         O33       1.0000    0.19410   0.61304   0.35658   Biso      1.000     O          -0.631903           
         O34       1.0000    0.05110   0.60970   0.41000   Biso      1.000     O          -0.567057           
         O35       1.0000    0.41894   0.80590   0.35658   Biso      1.000     O          -0.631866           
         O36       1.0000    0.55860   0.94890   0.41000   Biso      1.000     O          -0.567058           
         O37       1.0000    0.39030   0.44140   0.41000   Biso      1.000     O          -0.567052           
         O38       1.0000    0.80590   0.38696   0.35658   Biso      1.000     O          -0.631903           
         O39       1.0000    0.94890   0.39030   0.41000   Biso      1.000     O          -0.567057           
         O40       1.0000    0.58106   0.19410   0.35658   Biso      1.000     O          -0.631866           
         O41       1.0000    0.44140   0.05110   0.41000   Biso      1.000     O          -0.567059           
         O42       1.0000    0.61304   0.41894   0.35658   Biso      1.000     O          -0.63189  
         O43       1.0000    0.60970   0.55860   0.41000   Biso      1.000     O          -0.567052           
         O44       1.0000    0.58106   0.38696   0.14342   Biso      1.000     O          -0.631901           
         O45       1.0000    0.44140   0.39030   0.09000   Biso      1.000     O          -0.567055           
         O46       1.0000    0.61304   0.19410   0.14342   Biso      1.000     O          -0.631866           
         O47       1.0000    0.60970   0.05110   0.09000   Biso      1.000     O          -0.567058           
         O48       1.0000    0.80590   0.41894   0.14342   Biso      1.000     O          -0.631891           
         O49       1.0000    0.94890   0.55860   0.09000   Biso      1.000     O          -0.567053           
         O50       1.0000    0.41894   0.61304   0.14342   Biso      1.000     O          -0.631902           
         O51       1.0000    0.55860   0.60970   0.09000   Biso      1.000     O          -0.567055           
         O52       1.0000    0.38696   0.80590   0.14342   Biso      1.000     O          -0.631867           
         O53       1.0000    0.39030   0.94890   0.09000   Biso      1.000     O          -0.567058           
         O54       1.0000    0.19410   0.58106   0.14342   Biso      1.000     O          -0.631891           
         O55       1.0000    0.05110   0.44140   0.09000   Biso      1.000     O          -0.567052           
         O56       1.0000    0.80590   0.38696   0.64342   Biso      1.000     O          -0.631902           
         O57       1.0000    0.94890   0.39030   0.59000   Biso      1.000     O          -0.567056           
         O58       1.0000    0.58106   0.19410   0.64342   Biso      1.000     O          -0.631865           
         O59       1.0000    0.61304   0.41894   0.64342   Biso      1.000     O          -0.631889           
         O60       1.0000    0.76410   0.52820   0.25000   Biso      1.000     O          -0.228163 