
##########################################################################
#               Crystallographic Information Format file
#               Produced by PyCifRW module
#
#  This is a CIF file.  CIF has been adopted by the International
#  Union of Crystallography as the standard for data archiving and
#  transmission.
#
#  For information on this file format, follow the CIF links at
#  http://www.iucr.org
##########################################################################

data_image0

_cell_length_a                          14.595
_cell_length_b                          14.595
_cell_length_c                          15.267
_cell_angle_alpha                       90
_cell_angle_beta                        90
_cell_angle_gamma                       120
_symmetry_space_group_name_H-M          'P 1'
_symmetry_int_tables_number             1
loop_
  _symmetry_equiv_pos_as_xyz
         'x, y, z' 
loop_
  _atom_site_label
  _atom_site_occupancy
  _atom_site_fract_x
  _atom_site_fract_y
  _atom_site_fract_z
  _atom_site_thermal_displace_type
  _atom_site_B_iso_or_equiv
  _atom_site_type_symbol
  _atom_site_charge
         C1        1.0000    0.86890   0.35520   0.63890   Biso      1.000     C          0.660946  
         C2        1.0000    0.13110   0.48630   0.13890   Biso      1.000     C          0.660939  
         C3        1.0000    0.73650   0.14950   0.80360   Biso      1.000     C          -0.163741           
         C4        1.0000    0.35520   0.86890   0.13890   Biso      1.000     C          0.66094   
         C5        1.0000    0.41300   0.26350   0.80360   Biso      1.000     C          -0.163744           
         C6        1.0000    0.51370   0.64480   0.13890   Biso      1.000     C          0.660945  
         C7        1.0000    0.14950   0.41300   0.80360   Biso      1.000     C          -0.163737           
         C8        1.0000    0.86890   0.51370   0.13890   Biso      1.000     C          0.660939  
         C9        1.0000    0.26350   0.85050   0.80360   Biso      1.000     C          -0.163741           
         C10       1.0000    0.64480   0.13110   0.13890   Biso      1.000     C          0.66094   
         C11       1.0000    0.85050   0.58700   0.80360   Biso      1.000     C          -0.163737           
         C12       1.0000    0.58700   0.73650   0.80360   Biso      1.000     C          -0.163744           
         C13       1.0000    0.26350   0.41300   0.69640   Biso      1.000     C          -0.163737           
         C14       1.0000    0.64480   0.51370   0.36110   Biso      1.000     C          0.660939  
         C15       1.0000    0.58700   0.85050   0.69640   Biso      1.000     C          -0.163741           
         C16       1.0000    0.14950   0.73650   0.69640   Biso      1.000     C          -0.163744           
         C17       1.0000    0.86890   0.35520   0.36110   Biso      1.000     C          0.660946  
         C18       1.0000    0.73650   0.58700   0.69640   Biso      1.000     C          -0.163737           
         C19       1.0000    0.35520   0.48630   0.36110   Biso      1.000     C          0.660939  
         C20       1.0000    0.41300   0.14950   0.69640   Biso      1.000     C          -0.163741           
         C21       1.0000    0.51370   0.86890   0.36110   Biso      1.000     C          0.66094   
         C22       1.0000    0.48630   0.35520   0.13890   Biso      1.000     C          0.660945  
         C23       1.0000    0.85050   0.26350   0.69640   Biso      1.000     C          -0.163744           
         C24       1.0000    0.14950   0.73650   0.30360   Biso      1.000     C          -0.163744           
         C25       1.0000    0.58700   0.85050   0.30360   Biso      1.000     C          -0.163741           
         C26       1.0000    0.14950   0.41300   0.19640   Biso      1.000     C          -0.163737           
         C27       1.0000    0.86890   0.51370   0.86110   Biso      1.000     C          0.660939  
         C28       1.0000    0.26350   0.85050   0.19640   Biso      1.000     C          -0.163741           
         C29       1.0000    0.64480   0.13110   0.86110   Biso      1.000     C          0.66094   
         C30       1.0000    0.58700   0.73650   0.19640   Biso      1.000     C          -0.163744           
         C31       1.0000    0.48630   0.35520   0.86110   Biso      1.000     C          0.660945  
         C32       1.0000    0.85050   0.58700   0.19640   Biso      1.000     C          -0.163737           
         C33       1.0000    0.13110   0.48630   0.86110   Biso      1.000     C          0.660939  
         C34       1.0000    0.73650   0.14950   0.19640   Biso      1.000     C          -0.163741           
         C35       1.0000    0.48630   0.13110   0.63890   Biso      1.000     C          0.66094   
         C36       1.0000    0.35520   0.86890   0.86110   Biso      1.000     C          0.66094   
         C37       1.0000    0.51370   0.64480   0.86110   Biso      1.000     C          0.660945  
         C38       1.0000    0.73650   0.58700   0.30360   Biso      1.000     C          -0.163737           
         C39       1.0000    0.35520   0.48630   0.63890   Biso      1.000     C          0.660939  
         C40       1.0000    0.41300   0.14950   0.30360   Biso      1.000     C          -0.163742           
         C41       1.0000    0.51370   0.86890   0.63890   Biso      1.000     C          0.66094   
         C42       1.0000    0.85050   0.26350   0.30360   Biso      1.000     C          -0.163744           
         C43       1.0000    0.13110   0.64480   0.63890   Biso      1.000     C          0.660946  
         C44       1.0000    0.26350   0.41300   0.30360   Biso      1.000     C          -0.163737           
         C45       1.0000    0.64480   0.51370   0.63890   Biso      1.000     C          0.660939  
         C46       1.0000    0.41300   0.26350   0.19640   Biso      1.000     C          -0.163744           
         C47       1.0000    0.13110   0.64480   0.36110   Biso      1.000     C          0.660946  
         C48       1.0000    0.48630   0.13110   0.36110   Biso      1.000     C          0.66094   
         Cu1       1.0000    0.50000   0.50000   0.00000   Biso      1.000     Cu          0.985479  
         Cu2       1.0000    0.00000   0.50000   0.00000   Biso      1.000     Cu          0.985489  
         Cu3       1.0000    0.50000   0.00000   0.00000   Biso      1.000     Cu          0.985484  
         Cu4       1.0000    0.00000   0.50000   0.50000   Biso      1.000     Cu          0.985483  
         Cu5       1.0000    0.50000   0.50000   0.50000   Biso      1.000     Cu          0.985486  
         Cu6       1.0000    0.50000   0.00000   0.50000   Biso      1.000     Cu          0.985485  
         H1        1.0000    0.83770   0.20350   0.33960   Biso      1.000     H          0.120057  
         H2        1.0000    0.28320   0.37050   0.73200   Biso      1.000     H          0.10719   
         H3        1.0000    0.20350   0.36580   0.66040   Biso      1.000     H          0.120058  
         H4        1.0000    0.08730   0.71680   0.73200   Biso      1.000     H          0.107185  
         H5        1.0000    0.16230   0.79650   0.66040   Biso      1.000     H          0.120056  
         H6        1.0000    0.62950   0.91270   0.73200   Biso      1.000     H          0.107187  
         H7        1.0000    0.63420   0.83770   0.66040   Biso      1.000     H          0.120052  
         H8        1.0000    0.08730   0.37050   0.76800   Biso      1.000     H          0.10719   
         H9        1.0000    0.16230   0.36580   0.83960   Biso      1.000     H          0.120058  
         H10       1.0000    0.62950   0.71680   0.76800   Biso      1.000     H          0.107185  
         H11       1.0000    0.37050   0.08730   0.26800   Biso      1.000     H          0.107187  
         H12       1.0000    0.28320   0.91270   0.76800   Biso      1.000     H          0.107187  
         H13       1.0000    0.36580   0.16230   0.66040   Biso      1.000     H          0.120052  
         H14       1.0000    0.91270   0.62950   0.76800   Biso      1.000     H          0.10719   
         H15       1.0000    0.83770   0.63420   0.83960   Biso      1.000     H          0.120058  
         H16       1.0000    0.37050   0.28320   0.76800   Biso      1.000     H          0.107185  
         H17       1.0000    0.36580   0.20350   0.83960   Biso      1.000     H          0.120057  
         H18       1.0000    0.71680   0.08730   0.76800   Biso      1.000     H          0.107186  
         H19       1.0000    0.79650   0.16230   0.83960   Biso      1.000     H          0.120052  
         H20       1.0000    0.63420   0.79650   0.83960   Biso      1.000     H          0.120057  
         H21       1.0000    0.37050   0.08730   0.73200   Biso      1.000     H          0.107186  
         H22       1.0000    0.20350   0.83770   0.83960   Biso      1.000     H          0.120052  
         H23       1.0000    0.91270   0.28320   0.73200   Biso      1.000     H          0.107185  
         H24       1.0000    0.83770   0.20350   0.66040   Biso      1.000     H          0.120057  
         H25       1.0000    0.91270   0.28320   0.26800   Biso      1.000     H          0.107185  
         H26       1.0000    0.79650   0.63420   0.33960   Biso      1.000     H          0.120058  
         H27       1.0000    0.71680   0.62950   0.26800   Biso      1.000     H          0.10719   
         H28       1.0000    0.63420   0.83770   0.33960   Biso      1.000     H          0.120053  
         H29       1.0000    0.62950   0.91270   0.26800   Biso      1.000     H          0.107187  
         H30       1.0000    0.16230   0.79650   0.33960   Biso      1.000     H          0.120057  
         H31       1.0000    0.08730   0.71680   0.26800   Biso      1.000     H          0.107185  
         H32       1.0000    0.28320   0.37050   0.26800   Biso      1.000     H          0.10719   
         H33       1.0000    0.36580   0.16230   0.33960   Biso      1.000     H          0.120053  
         H34       1.0000    0.91270   0.62950   0.23200   Biso      1.000     H          0.10719   
         H35       1.0000    0.83770   0.63420   0.16040   Biso      1.000     H          0.120058  
         H36       1.0000    0.37050   0.28320   0.23200   Biso      1.000     H          0.107185  
         H37       1.0000    0.20350   0.36580   0.33960   Biso      1.000     H          0.120058  
         H38       1.0000    0.71680   0.08730   0.23200   Biso      1.000     H          0.107186  
         H39       1.0000    0.79650   0.63420   0.66040   Biso      1.000     H          0.120058  
         H40       1.0000    0.36580   0.20350   0.16040   Biso      1.000     H          0.120057  
         H41       1.0000    0.71680   0.62950   0.73200   Biso      1.000     H          0.10719   
         H42       1.0000    0.20350   0.83770   0.16040   Biso      1.000     H          0.120052  
         H43       1.0000    0.28320   0.91270   0.23200   Biso      1.000     H          0.107186  
         H44       1.0000    0.63420   0.79650   0.16040   Biso      1.000     H          0.120057  
         H45       1.0000    0.16230   0.36580   0.16040   Biso      1.000     H          0.120059  
         H46       1.0000    0.08730   0.37050   0.23200   Biso      1.000     H          0.107189  
         H47       1.0000    0.79650   0.16230   0.16040   Biso      1.000     H          0.120052  
         H48       1.0000    0.62950   0.71680   0.23200   Biso      1.000     H          0.107185  
         O1        1.0000    0.38770   0.80400   0.85495   Biso      1.000     O          -0.592467           
         O2        1.0000    0.41630   0.61230   0.85495   Biso      1.000     O          -0.592464           
         O3        1.0000    0.38950   0.94640   0.91050   Biso      1.000     O          -0.56513  
         O4        1.0000    0.19600   0.58370   0.85495   Biso      1.000     O          -0.592457           
         O5        1.0000    0.55690   0.61050   0.91050   Biso      1.000     O          -0.565127           
         O6        1.0000    0.38950   0.44310   0.58950   Biso      1.000     O          -0.565123           
         O7        1.0000    0.05360   0.61050   0.58950   Biso      1.000     O          -0.565128           
         O8        1.0000    0.55690   0.94640   0.58950   Biso      1.000     O          -0.565129           
         O9        1.0000    0.41630   0.80400   0.64505   Biso      1.000     O          -0.592467           
         O10       1.0000    0.61050   0.55690   0.58950   Biso      1.000     O          -0.565124           
         O11       1.0000    0.05360   0.44310   0.91050   Biso      1.000     O          -0.565124           
         O12       1.0000    0.19600   0.61230   0.64505   Biso      1.000     O          -0.592465           
         O13       1.0000    0.38770   0.58370   0.64505   Biso      1.000     O          -0.592457           
         O14       1.0000    0.58370   0.38770   0.85495   Biso      1.000     O          -0.592464           
         O15       1.0000    0.23620   0.47240   0.25000   Biso      1.000     O          -0.183995           
         O16       1.0000    0.61230   0.19600   0.85495   Biso      1.000     O          -0.592467           
         O17       1.0000    0.61050   0.05360   0.91050   Biso      1.000     O          -0.56513  
         O18       1.0000    0.80400   0.41630   0.85495   Biso      1.000     O          -0.592457           
         O19       1.0000    0.94640   0.55690   0.91050   Biso      1.000     O          -0.565124           
         O20       1.0000    0.76380   0.23620   0.75000   Biso      1.000     O          -0.183976           
         O21       1.0000    0.47240   0.23620   0.75000   Biso      1.000     O          -0.183977           
         O22       1.0000    0.76380   0.52760   0.75000   Biso      1.000     O          -0.183995           
         O23       1.0000    0.23620   0.76380   0.75000   Biso      1.000     O          -0.183977           
         O24       1.0000    0.52760   0.76380   0.75000   Biso      1.000     O          -0.183977           
         O25       1.0000    0.23620   0.47240   0.75000   Biso      1.000     O          -0.183995           
         O26       1.0000    0.76380   0.23620   0.25000   Biso      1.000     O          -0.183976           
         O27       1.0000    0.52760   0.76380   0.25000   Biso      1.000     O          -0.183977           
         O28       1.0000    0.61230   0.41630   0.64505   Biso      1.000     O          -0.592456           
         O29       1.0000    0.23620   0.76380   0.25000   Biso      1.000     O          -0.183976           
         O30       1.0000    0.44310   0.38950   0.91050   Biso      1.000     O          -0.565127           
         O31       1.0000    0.44310   0.05360   0.58950   Biso      1.000     O          -0.565129           
         O32       1.0000    0.76380   0.52760   0.25000   Biso      1.000     O          -0.183995           
         O33       1.0000    0.94640   0.38950   0.58950   Biso      1.000     O          -0.565128           
         O34       1.0000    0.47240   0.23620   0.25000   Biso      1.000     O          -0.183977           
         O35       1.0000    0.19600   0.61230   0.35495   Biso      1.000     O          -0.592465           
         O36       1.0000    0.05360   0.61050   0.41050   Biso      1.000     O          -0.565128           
         O37       1.0000    0.41630   0.80400   0.35495   Biso      1.000     O          -0.592467           
         O38       1.0000    0.55690   0.94640   0.41050   Biso      1.000     O          -0.565129           
         O39       1.0000    0.38770   0.58370   0.35495   Biso      1.000     O          -0.592456           
         O40       1.0000    0.38950   0.44310   0.41050   Biso      1.000     O          -0.565123           
         O41       1.0000    0.80400   0.38770   0.35495   Biso      1.000     O          -0.592465           
         O42       1.0000    0.94640   0.38950   0.41050   Biso      1.000     O          -0.565128           
         O43       1.0000    0.58370   0.19600   0.35495   Biso      1.000     O          -0.592467           
         O44       1.0000    0.44310   0.05360   0.41050   Biso      1.000     O          -0.565129           
         O45       1.0000    0.58370   0.19600   0.64505   Biso      1.000     O          -0.592467           
         O46       1.0000    0.61050   0.55690   0.41050   Biso      1.000     O          -0.565123           
         O47       1.0000    0.61230   0.41630   0.35495   Biso      1.000     O          -0.592456           
         O48       1.0000    0.44310   0.38950   0.08950   Biso      1.000     O          -0.565127           
         O49       1.0000    0.80400   0.38770   0.64505   Biso      1.000     O          -0.592465           
         O50       1.0000    0.05360   0.44310   0.08950   Biso      1.000     O          -0.565124           
         O51       1.0000    0.19600   0.58370   0.14505   Biso      1.000     O          -0.592457           
         O52       1.0000    0.58370   0.38770   0.14505   Biso      1.000     O          -0.592464           
         O53       1.0000    0.38770   0.80400   0.14505   Biso      1.000     O          -0.592467           
         O54       1.0000    0.38950   0.94640   0.08950   Biso      1.000     O          -0.56513  
         O55       1.0000    0.41630   0.61230   0.14505   Biso      1.000     O          -0.592464           
         O56       1.0000    0.94640   0.55690   0.08950   Biso      1.000     O          -0.565124           
         O57       1.0000    0.80400   0.41630   0.14505   Biso      1.000     O          -0.592457           
         O58       1.0000    0.61050   0.05360   0.08950   Biso      1.000     O          -0.56513  
         O59       1.0000    0.61230   0.19600   0.14505   Biso      1.000     O          -0.592467           
         O60       1.0000    0.55690   0.61050   0.08950   Biso      1.000     O          -0.565127           
         Y1        1.0000    0.33333   0.66666   0.75000   Biso      1.000     Y          1.672598  
         Y2        1.0000    0.66667   0.33334   0.75000   Biso      1.000     Y          1.672598  
         Y3        1.0000    0.66667   0.33334   0.25000   Biso      1.000     Y          1.672598  
         Y4        1.0000    0.33333   0.66666   0.25000   Biso      1.000     Y          1.672598 