
##########################################################################
#               Crystallographic Information Format file
#               Produced by PyCifRW module
#
#  This is a CIF file.  CIF has been adopted by the International
#  Union of Crystallography as the standard for data archiving and
#  transmission.
#
#  For information on this file format, follow the CIF links at
#  http://www.iucr.org
##########################################################################

data_image0

_cell_length_a                          14.584
_cell_length_b                          15.199
_cell_length_c                          15.199
_cell_angle_alpha                       120
_cell_angle_beta                        90
_cell_angle_gamma                       90
_symmetry_space_group_name_H-M          'P 1'
_symmetry_int_tables_number             1
loop_
  _symmetry_equiv_pos_as_xyz
         'x, y, z' 
loop_
  _atom_site_label
  _atom_site_occupancy
  _atom_site_fract_x
  _atom_site_fract_y
  _atom_site_fract_z
  _atom_site_thermal_displace_type
  _atom_site_B_iso_or_equiv
  _atom_site_type_symbol
  _atom_site_charge
         C1        1.0000    0.64020   0.87250   0.35700   Biso      1.000     C          0.66951   
         C2        1.0000    0.14020   0.12750   0.48450   Biso      1.000     C          0.669503  
         C3        1.0000    0.79950   0.73090   0.14560   Biso      1.000     C          -0.165819           
         C4        1.0000    0.14020   0.35700   0.87250   Biso      1.000     C          0.669502  
         C5        1.0000    0.79950   0.41470   0.26910   Biso      1.000     C          -0.165824           
         C6        1.0000    0.14020   0.51550   0.64300   Biso      1.000     C          0.669509  
         C7        1.0000    0.79950   0.14560   0.41470   Biso      1.000     C          -0.16581600000000002          
         C8        1.0000    0.14020   0.87250   0.51550   Biso      1.000     C          0.669503  
         C9        1.0000    0.79950   0.26910   0.85440   Biso      1.000     C          -0.165819           
         C10       1.0000    0.14020   0.64300   0.12750   Biso      1.000     C          0.669502  
         C11       1.0000    0.79950   0.85440   0.58530   Biso      1.000     C          -0.16581600000000002          
         C12       1.0000    0.79950   0.58530   0.73090   Biso      1.000     C          -0.165824           
         C13       1.0000    0.70050   0.26910   0.41470   Biso      1.000     C          -0.16581600000000002          
         C14       1.0000    0.35980   0.64300   0.51550   Biso      1.000     C          0.669503  
         C15       1.0000    0.70050   0.58530   0.85440   Biso      1.000     C          -0.165819           
         C16       1.0000    0.70050   0.14560   0.73090   Biso      1.000     C          -0.165824           
         C17       1.0000    0.35980   0.87250   0.35700   Biso      1.000     C          0.66951   
         C18       1.0000    0.70050   0.73090   0.58530   Biso      1.000     C          -0.16581600000000002          
         C19       1.0000    0.35980   0.35700   0.48450   Biso      1.000     C          0.669503  
         C20       1.0000    0.70050   0.41470   0.14560   Biso      1.000     C          -0.165819           
         C21       1.0000    0.35980   0.51550   0.87250   Biso      1.000     C          0.669501  
         C22       1.0000    0.14020   0.48450   0.35700   Biso      1.000     C          0.669509  
         C23       1.0000    0.70050   0.85440   0.26910   Biso      1.000     C          -0.165824           
         C24       1.0000    0.29950   0.14560   0.73090   Biso      1.000     C          -0.165824           
         C25       1.0000    0.29950   0.58530   0.85440   Biso      1.000     C          -0.165819           
         C26       1.0000    0.20050   0.14560   0.41470   Biso      1.000     C          -0.16581600000000002          
         C27       1.0000    0.85980   0.87250   0.51550   Biso      1.000     C          0.669503  
         C28       1.0000    0.20050   0.26910   0.85440   Biso      1.000     C          -0.165819           
         C29       1.0000    0.85980   0.64300   0.12750   Biso      1.000     C          0.669502  
         C30       1.0000    0.20050   0.58530   0.73090   Biso      1.000     C          -0.165824           
         C31       1.0000    0.85980   0.48450   0.35700   Biso      1.000     C          0.669509  
         C32       1.0000    0.20050   0.85440   0.58530   Biso      1.000     C          -0.16581600000000002          
         C33       1.0000    0.85980   0.12750   0.48450   Biso      1.000     C          0.669503  
         C34       1.0000    0.20050   0.73090   0.14560   Biso      1.000     C          -0.165819           
         C35       1.0000    0.64020   0.48450   0.12750   Biso      1.000     C          0.669501  
         C36       1.0000    0.85980   0.35700   0.87250   Biso      1.000     C          0.669502  
         C37       1.0000    0.85980   0.51550   0.64300   Biso      1.000     C          0.669509  
         C38       1.0000    0.29950   0.73090   0.58530   Biso      1.000     C          -0.16581600000000002          
         C39       1.0000    0.64020   0.35700   0.48450   Biso      1.000     C          0.669503  
         C40       1.0000    0.29950   0.41470   0.14560   Biso      1.000     C          -0.165819           
         C41       1.0000    0.64020   0.51550   0.87250   Biso      1.000     C          0.669501  
         C42       1.0000    0.29950   0.85440   0.26910   Biso      1.000     C          -0.165824           
         C43       1.0000    0.64020   0.12750   0.64300   Biso      1.000     C          0.66951   
         C44       1.0000    0.29950   0.26910   0.41470   Biso      1.000     C          -0.16581600000000002          
         C45       1.0000    0.64020   0.64300   0.51550   Biso      1.000     C          0.669503  
         C46       1.0000    0.20050   0.41470   0.26910   Biso      1.000     C          -0.165824           
         C47       1.0000    0.35980   0.12750   0.64300   Biso      1.000     C          0.66951   
         C48       1.0000    0.35980   0.48450   0.12750   Biso      1.000     C          0.669501  
         Cu1       1.0000    0.00000   0.50000   0.50000   Biso      1.000     Cu          0.9800110000000001  
         Cu2       1.0000    0.00000   0.00000   0.50000   Biso      1.000     Cu          0.9800040000000001  
         Cu3       1.0000    0.00000   0.50000   0.00000   Biso      1.000     Cu          0.98      
         Cu4       1.0000    0.50000   0.00000   0.50000   Biso      1.000     Cu          0.980015  
         Cu5       1.0000    0.50000   0.50000   0.50000   Biso      1.000     Cu          0.980001  
         Cu6       1.0000    0.50000   0.50000   0.00000   Biso      1.000     Cu          0.98      
         H1        1.0000    0.33680   0.84930   0.21390   Biso      1.000     H          0.121555  
         H2        1.0000    0.74260   0.29000   0.37920   Biso      1.000     H          0.11459200000000001           
         H3        1.0000    0.66320   0.21390   0.36460   Biso      1.000     H          0.121557  
         H4        1.0000    0.74260   0.08920   0.71000   Biso      1.000     H          0.114586  
         H5        1.0000    0.66320   0.15070   0.78610   Biso      1.000     H          0.121555  
         H6        1.0000    0.74260   0.62080   0.91080   Biso      1.000     H          0.11458800000000001           
         H7        1.0000    0.66320   0.63540   0.84930   Biso      1.000     H          0.12155   
         H8        1.0000    0.75740   0.08920   0.37920   Biso      1.000     H          0.11459200000000001           
         H9        1.0000    0.83680   0.15070   0.36460   Biso      1.000     H          0.121558  
         H10       1.0000    0.75740   0.62080   0.71000   Biso      1.000     H          0.114586  
         H11       1.0000    0.25740   0.37920   0.08920   Biso      1.000     H          0.11458800000000001           
         H12       1.0000    0.75740   0.29000   0.91080   Biso      1.000     H          0.114587  
         H13       1.0000    0.66320   0.36460   0.15070   Biso      1.000     H          0.12155   
         H14       1.0000    0.75740   0.91080   0.62080   Biso      1.000     H          0.11459200000000001           
         H15       1.0000    0.83680   0.84930   0.63540   Biso      1.000     H          0.121558  
         H16       1.0000    0.75740   0.37920   0.29000   Biso      1.000     H          0.114586  
         H17       1.0000    0.83680   0.36460   0.21390   Biso      1.000     H          0.121555  
         H18       1.0000    0.75740   0.71000   0.08920   Biso      1.000     H          0.114587  
         H19       1.0000    0.83680   0.78610   0.15070   Biso      1.000     H          0.12155   
         H20       1.0000    0.83680   0.63540   0.78610   Biso      1.000     H          0.121555  
         H21       1.0000    0.74260   0.37920   0.08920   Biso      1.000     H          0.114587  
         H22       1.0000    0.83680   0.21390   0.84930   Biso      1.000     H          0.12155   
         H23       1.0000    0.74260   0.91080   0.29000   Biso      1.000     H          0.114586  
         H24       1.0000    0.66320   0.84930   0.21390   Biso      1.000     H          0.121555  
         H25       1.0000    0.25740   0.91080   0.29000   Biso      1.000     H          0.114586  
         H26       1.0000    0.33680   0.78610   0.63540   Biso      1.000     H          0.121557  
         H27       1.0000    0.25740   0.71000   0.62080   Biso      1.000     H          0.11459200000000001           
         H28       1.0000    0.33680   0.63540   0.84930   Biso      1.000     H          0.12155   
         H29       1.0000    0.25740   0.62080   0.91080   Biso      1.000     H          0.11458800000000001           
         H30       1.0000    0.33680   0.15070   0.78610   Biso      1.000     H          0.121555  
         H31       1.0000    0.25740   0.08920   0.71000   Biso      1.000     H          0.114586  
         H32       1.0000    0.25740   0.29000   0.37920   Biso      1.000     H          0.11459200000000001           
         H33       1.0000    0.33680   0.36460   0.15070   Biso      1.000     H          0.12155   
         H34       1.0000    0.24260   0.91080   0.62080   Biso      1.000     H          0.11459200000000001           
         H35       1.0000    0.16320   0.84930   0.63540   Biso      1.000     H          0.121558  
         H36       1.0000    0.24260   0.37920   0.29000   Biso      1.000     H          0.114586  
         H37       1.0000    0.33680   0.21390   0.36460   Biso      1.000     H          0.121558  
         H38       1.0000    0.24260   0.71000   0.08920   Biso      1.000     H          0.114587  
         H39       1.0000    0.66320   0.78610   0.63540   Biso      1.000     H          0.121557  
         H40       1.0000    0.16320   0.36460   0.21390   Biso      1.000     H          0.121555  
         H41       1.0000    0.74260   0.71000   0.62080   Biso      1.000     H          0.11459200000000001           
         H42       1.0000    0.16320   0.21390   0.84930   Biso      1.000     H          0.12155   
         H43       1.0000    0.24260   0.29000   0.91080   Biso      1.000     H          0.114587  
         H44       1.0000    0.16320   0.63540   0.78610   Biso      1.000     H          0.121555  
         H45       1.0000    0.16320   0.15070   0.36460   Biso      1.000     H          0.121558  
         H46       1.0000    0.24260   0.08920   0.37920   Biso      1.000     H          0.11459200000000001           
         H47       1.0000    0.16320   0.78610   0.15070   Biso      1.000     H          0.12155   
         H48       1.0000    0.24260   0.62080   0.71000   Biso      1.000     H          0.114586  
         O1        1.0000    0.85930   0.38510   0.80800   Biso      1.000     O          -0.640636           
         O2        1.0000    0.85930   0.42290   0.61490   Biso      1.000     O          -0.640667           
         O3        1.0000    0.90640   0.39370   0.95170   Biso      1.000     O          -0.565488           
         O4        1.0000    0.85930   0.19200   0.57710   Biso      1.000     O          -0.6406609999999999           
         O5        1.0000    0.90640   0.55800   0.60630   Biso      1.000     O          -0.5654859999999999           
         O6        1.0000    0.59360   0.39370   0.44200   Biso      1.000     O          -0.565476           
         O7        1.0000    0.59360   0.04830   0.60630   Biso      1.000     O          -0.5654859999999999           
         O8        1.0000    0.59360   0.55800   0.95170   Biso      1.000     O          -0.565487           
         O9        1.0000    0.64070   0.42290   0.80800   Biso      1.000     O          -0.640636           
         O10       1.0000    0.59360   0.60630   0.55800   Biso      1.000     O          -0.565476           
         O11       1.0000    0.90640   0.04830   0.44200   Biso      1.000     O          -0.565476           
         O12       1.0000    0.64070   0.19200   0.61490   Biso      1.000     O          -0.640667           
         O13       1.0000    0.64070   0.38510   0.57710   Biso      1.000     O          -0.64066  
         O14       1.0000    0.85930   0.57710   0.38510   Biso      1.000     O          -0.640667           
         O15       1.0000    0.25000   0.23620   0.47240   Biso      1.000     O          -0.230238           
         O16       1.0000    0.85930   0.61490   0.19200   Biso      1.000     O          -0.640636           
         O17       1.0000    0.90640   0.60630   0.04830   Biso      1.000     O          -0.565488           
         O18       1.0000    0.85930   0.80800   0.42290   Biso      1.000     O          -0.6406609999999999           
         O19       1.0000    0.90640   0.95170   0.55800   Biso      1.000     O          -0.565476           
         O20       1.0000    0.75000   0.76380   0.23620   Biso      1.000     O          -0.230196           
         O21       1.0000    0.75000   0.47240   0.23620   Biso      1.000     O          -0.23019699999999998          
         O22       1.0000    0.75000   0.76380   0.52760   Biso      1.000     O          -0.230238           
         O23       1.0000    0.75000   0.23620   0.76380   Biso      1.000     O          -0.230196           
         O24       1.0000    0.75000   0.52760   0.76380   Biso      1.000     O          -0.23019699999999998          
         O25       1.0000    0.75000   0.23620   0.47240   Biso      1.000     O          -0.230238           
         O26       1.0000    0.25000   0.76380   0.23620   Biso      1.000     O          -0.230196           
         O27       1.0000    0.25000   0.52760   0.76380   Biso      1.000     O          -0.23019699999999998          
         O28       1.0000    0.64070   0.61490   0.42290   Biso      1.000     O          -0.64066  
         O29       1.0000    0.25000   0.23620   0.76380   Biso      1.000     O          -0.230196           
         O30       1.0000    0.90640   0.44200   0.39370   Biso      1.000     O          -0.5654859999999999           
         O31       1.0000    0.59360   0.44200   0.04830   Biso      1.000     O          -0.565487           
         O32       1.0000    0.25000   0.76380   0.52760   Biso      1.000     O          -0.230238           
         O33       1.0000    0.59360   0.95170   0.39370   Biso      1.000     O          -0.5654859999999999           
         O34       1.0000    0.25000   0.47240   0.23620   Biso      1.000     O          -0.23019699999999998          
         O35       1.0000    0.35930   0.19200   0.61490   Biso      1.000     O          -0.640667           
         O36       1.0000    0.40640   0.04830   0.60630   Biso      1.000     O          -0.5654859999999999           
         O37       1.0000    0.35930   0.42290   0.80800   Biso      1.000     O          -0.640636           
         O38       1.0000    0.40640   0.55800   0.95170   Biso      1.000     O          -0.565487           
         O39       1.0000    0.35930   0.38510   0.57710   Biso      1.000     O          -0.64066  
         O40       1.0000    0.40640   0.39370   0.44200   Biso      1.000     O          -0.565476           
         O41       1.0000    0.35930   0.80800   0.38510   Biso      1.000     O          -0.640667           
         O42       1.0000    0.40640   0.95170   0.39370   Biso      1.000     O          -0.5654859999999999           
         O43       1.0000    0.35930   0.57710   0.19200   Biso      1.000     O          -0.640636           
         O44       1.0000    0.40640   0.44200   0.04830   Biso      1.000     O          -0.565487           
         O45       1.0000    0.64070   0.57710   0.19200   Biso      1.000     O          -0.640636           
         O46       1.0000    0.40640   0.60630   0.55800   Biso      1.000     O          -0.565476           
         O47       1.0000    0.35930   0.61490   0.42290   Biso      1.000     O          -0.64066  
         O48       1.0000    0.09360   0.44200   0.39370   Biso      1.000     O          -0.5654859999999999           
         O49       1.0000    0.64070   0.80800   0.38510   Biso      1.000     O          -0.640668           
         O50       1.0000    0.09360   0.04830   0.44200   Biso      1.000     O          -0.565476           
         O51       1.0000    0.14070   0.19200   0.57710   Biso      1.000     O          -0.6406609999999999           
         O52       1.0000    0.14070   0.57710   0.38510   Biso      1.000     O          -0.640667           
         O53       1.0000    0.14070   0.38510   0.80800   Biso      1.000     O          -0.640636           
         O54       1.0000    0.09360   0.39370   0.95170   Biso      1.000     O          -0.565488           
         O55       1.0000    0.14070   0.42290   0.61490   Biso      1.000     O          -0.640667           
         O56       1.0000    0.09360   0.95170   0.55800   Biso      1.000     O          -0.565476           
         O57       1.0000    0.14070   0.80800   0.42290   Biso      1.000     O          -0.6406609999999999           
         O58       1.0000    0.09360   0.60630   0.04830   Biso      1.000     O          -0.565488           
         O59       1.0000    0.14070   0.61490   0.19200   Biso      1.000     O          -0.640636           
         O60       1.0000    0.09360   0.55800   0.60630   Biso      1.000     O          -0.5654859999999999           
         Pr1       1.0000    0.75000   0.33333   0.66666   Biso      1.000     Pr          2.018484  
         Pr2       1.0000    0.75000   0.66667   0.33334   Biso      1.000     Pr          2.018484  
         Pr3       1.0000    0.25000   0.66667   0.33334   Biso      1.000     Pr          2.0184830000000002  
         Pr4       1.0000    0.25000   0.33333   0.66666   Biso      1.000     Pr          2.0184830000000002 