
##########################################################################
#               Crystallographic Information Format file
#               Produced by PyCifRW module
#
#  This is a CIF file.  CIF has been adopted by the International
#  Union of Crystallography as the standard for data archiving and
#  transmission.
#
#  For information on this file format, follow the CIF links at
#  http://www.iucr.org
##########################################################################

data_image0

_cell_length_a                          7.621
_cell_length_b                          9.634
_cell_length_c                          10.5
_cell_angle_alpha                       106.409
_cell_angle_beta                        105.273
_cell_angle_gamma                       100.88
_symmetry_space_group_name_H-M          'P 1'
_symmetry_int_tables_number             1
loop_
  _symmetry_equiv_pos_as_xyz
         'x, y, z' 
loop_
  _atom_site_label
  _atom_site_occupancy
  _atom_site_fract_x
  _atom_site_fract_y
  _atom_site_fract_z
  _atom_site_thermal_displace_type
  _atom_site_B_iso_or_equiv
  _atom_site_type_symbol
  _atom_site_charge
         C1        1.0000    0.44360   0.90910   0.71480   Biso      1.000     C          0.741208  
         C2        1.0000    0.74260   0.55040   0.93350   Biso      1.000     C          -0.24984  
         C3        1.0000    0.69140   0.54040   0.79430   Biso      1.000     C          0.172097  
         C4        1.0000    0.58250   0.62850   0.74940   Biso      1.000     C          -0.24109  
         C5        1.0000    0.38470   0.81140   0.79420   Biso      1.000     C          -0.406755           
         C6        1.0000    0.26010   0.57470   0.31330   Biso      1.000     C          -0.391878           
         C7        1.0000    0.74300   0.66330   0.18230   Biso      1.000     C          -0.397294           
         C8        1.0000    0.91720   0.79380   0.27500   Biso      1.000     C          0.704226  
         C9        1.0000    0.73990   0.42530   0.68670   Biso      1.000     C          -0.391878           
         C10       1.0000    0.57540   0.28580   0.60590   Biso      1.000     C          0.726956  
         C11       1.0000    0.47780   0.27390   0.15520   Biso      1.000     C          0.176414  
         C12       1.0000    0.42250   0.26580   0.01700   Biso      1.000     C          -0.248398           
         C13       1.0000    0.31150   0.35070   0.97030   Biso      1.000     C          0.190637  
         C14       1.0000    0.25740   0.44960   0.06650   Biso      1.000     C          -0.249839           
         C15       1.0000    0.30860   0.45960   0.20570   Biso      1.000     C          0.172097  
         C16       1.0000    0.41750   0.37150   0.25060   Biso      1.000     C          -0.24109  
         C17       1.0000    0.61530   0.18860   0.20580   Biso      1.000     C          -0.406754           
         C18       1.0000    0.55640   0.09090   0.28520   Biso      1.000     C          0.741207  
         C19       1.0000    0.68850   0.64930   0.02970   Biso      1.000     C          0.190635  
         C20       1.0000    0.57750   0.73420   0.98300   Biso      1.000     C          -0.248397           
         C21       1.0000    0.52220   0.72610   0.84480   Biso      1.000     C          0.176416  
         C22       1.0000    0.08280   0.20620   0.72500   Biso      1.000     C          0.704226  
         C23       1.0000    0.42460   0.71420   0.39410   Biso      1.000     C          0.726956  
         C24       1.0000    0.25700   0.33670   0.81770   Biso      1.000     C          -0.397294           
         H1        1.0000    0.53790   0.80040   0.04820   Biso      1.000     H          0.123245  
         H2        1.0000    0.81580   0.48880   0.96380   Biso      1.000     H          0.12336   
         H3        1.0000    0.54840   0.62280   0.65400   Biso      1.000     H          0.122119  
         H4        1.0000    0.36380   0.87600   0.87750   Biso      1.000     H          0.158041  
         H5        1.0000    0.26140   0.73670   0.73290   Biso      1.000     H          0.154776  
         H6        1.0000    0.63550   0.67730   0.21590   Biso      1.000     H          0.146835  
         H7        1.0000    0.76740   0.56840   0.19080   Biso      1.000     H          0.157752  
         H8        1.0000    0.22470   0.52930   0.37990   Biso      1.000     H          0.162288  
         H9        1.0000    0.46210   0.19960   0.95180   Biso      1.000     H          0.123245  
         H10       1.0000    0.18420   0.51120   0.03620   Biso      1.000     H          0.123359  
         H11       1.0000    0.45160   0.37720   0.34600   Biso      1.000     H          0.122119  
         H12       1.0000    0.63620   0.12400   0.12250   Biso      1.000     H          0.15804   
         H13       1.0000    0.73860   0.26330   0.26710   Biso      1.000     H          0.154776  
         H14       1.0000    0.36450   0.32270   0.78410   Biso      1.000     H          0.146835  
         H15       1.0000    0.23260   0.43160   0.80920   Biso      1.000     H          0.157752  
         H16       1.0000    0.14960   0.60250   0.26440   Biso      1.000     H          0.149528  
         H17       1.0000    0.77530   0.47070   0.62010   Biso      1.000     H          0.162288  
         H18       1.0000    0.85040   0.39750   0.73560   Biso      1.000     H          0.149528  
         Ho1       1.0000    0.75333   0.96738   0.54823   Biso      1.000     Ho          2.101253  
         Ho2       1.0000    0.24667   0.03262   0.45177   Biso      1.000     Ho          2.101254  
         O1        1.0000    0.60770   0.93180   0.70840   Biso      1.000     O          -0.669758           
         O2        1.0000    0.31470   0.96080   0.65540   Biso      1.000     O          -0.703448           
         O3        1.0000    0.04390   0.83380   0.22770   Biso      1.000     O          -0.602368           
         O4        1.0000    0.93670   0.86220   0.40410   Biso      1.000     O          -0.786091           
         O5        1.0000    0.41150   0.29620   0.55850   Biso      1.000     O          -0.644099           
         O6        1.0000    0.60070   0.15500   0.58340   Biso      1.000     O          -0.769717           
         O7        1.0000    0.39230   0.06820   0.29160   Biso      1.000     O          -0.669758           
         O8        1.0000    0.68530   0.03920   0.34460   Biso      1.000     O          -0.703448           
         O9        1.0000    0.95610   0.16620   0.77230   Biso      1.000     O          -0.602368           
         O10       1.0000    0.06330   0.13780   0.59590   Biso      1.000     O          -0.786091           
         O11       1.0000    0.58850   0.70380   0.44150   Biso      1.000     O          -0.644099           
         O12       1.0000    0.39930   0.84500   0.41660   Biso      1.000     O          -0.769718 