
##########################################################################
#               Crystallographic Information Format file
#               Produced by PyCifRW module
#
#  This is a CIF file.  CIF has been adopted by the International
#  Union of Crystallography as the standard for data archiving and
#  transmission.
#
#  For information on this file format, follow the CIF links at
#  http://www.iucr.org
##########################################################################

data_image0

_cell_length_a                          5.742
_cell_length_b                          8.55
_cell_length_c                          18.512
_cell_angle_alpha                       90
_cell_angle_beta                        90
_cell_angle_gamma                       90
_symmetry_space_group_name_H-M          'P 1'
_symmetry_int_tables_number             1
loop_
  _symmetry_equiv_pos_as_xyz
         'x, y, z' 
loop_
  _atom_site_label
  _atom_site_occupancy
  _atom_site_fract_x
  _atom_site_fract_y
  _atom_site_fract_z
  _atom_site_thermal_displace_type
  _atom_site_B_iso_or_equiv
  _atom_site_type_symbol
  _atom_site_charge
         C1        1.0000    0.11120   0.94850   0.73800   Biso      1.000     C          -0.155028           
         C2        1.0000    0.38880   0.05150   0.23800   Biso      1.000     C          -0.154941           
         C3        1.0000    0.24040   0.14900   0.27660   Biso      1.000     C          0.001338  
         C4        1.0000    0.28310   0.18640   0.35420   Biso      1.000     C          0.618342  
         C5        1.0000    0.50300   0.84100   0.67050   Biso      1.000     C          0.070584  
         C6        1.0000    0.16400   0.98260   0.66630   Biso      1.000     C          0.068639  
         C7        1.0000    0.46000   0.79970   0.74130   Biso      1.000     C          -0.143385           
         C8        1.0000    0.25960   0.85100   0.77660   Biso      1.000     C          0.000888  
         C9        1.0000    0.21690   0.81360   0.85420   Biso      1.000     C          0.618102  
         C10       1.0000    0.04000   0.20030   0.24130   Biso      1.000     C          -0.143199           
         C11       1.0000    0.00300   0.65900   0.32950   Biso      1.000     C          0.070576  
         C12       1.0000    0.96000   0.70030   0.25870   Biso      1.000     C          -0.143385           
         C13       1.0000    0.61120   0.55150   0.26200   Biso      1.000     C          -0.155086           
         C14       1.0000    0.75960   0.64900   0.22340   Biso      1.000     C          0.000971  
         C15       1.0000    0.71690   0.68640   0.14580   Biso      1.000     C          0.618026  
         C16       1.0000    0.49700   0.34100   0.82950   Biso      1.000     C          0.07075   
         C17       1.0000    0.83600   0.48260   0.83370   Biso      1.000     C          0.068907  
         C18       1.0000    0.54000   0.29970   0.75870   Biso      1.000     C          -0.143258           
         C19       1.0000    0.88880   0.44850   0.76200   Biso      1.000     C          -0.154947           
         C20       1.0000    0.66400   0.51740   0.33370   Biso      1.000     C          0.068666  
         C21       1.0000    0.74040   0.35100   0.72340   Biso      1.000     C          0.001381  
         C22       1.0000    0.33600   0.01740   0.16630   Biso      1.000     C          0.068908  
         C23       1.0000    0.78310   0.31360   0.64580   Biso      1.000     C          0.618303  
         C24       1.0000    0.99700   0.15900   0.17050   Biso      1.000     C          0.070683  
         H1        1.0000    0.86480   0.19820   0.14800   Biso      1.000     H          0.070314  
         H2        1.0000    0.44120   0.95840   0.13970   Biso      1.000     H          0.083878  
         H3        1.0000    0.93330   0.26310   0.26570   Biso      1.000     H          0.125393  
         H4        1.0000    0.52110   0.00980   0.25960   Biso      1.000     H          0.128038  
         H5        1.0000    0.63520   0.80180   0.64800   Biso      1.000     H          0.070368  
         H6        1.0000    0.05880   0.04160   0.63970   Biso      1.000     H          0.08382   
         H7        1.0000    0.97890   0.99020   0.75960   Biso      1.000     H          0.127974  
         H8        1.0000    0.02110   0.49020   0.74040   Biso      1.000     H          0.128041  
         H9        1.0000    0.55880   0.45840   0.36030   Biso      1.000     H          0.083818  
         H10       1.0000    0.06670   0.76310   0.23430   Biso      1.000     H          0.125292  
         H11       1.0000    0.47890   0.50980   0.24040   Biso      1.000     H          0.127965  
         H12       1.0000    0.36480   0.30180   0.85200   Biso      1.000     H          0.070291  
         H13       1.0000    0.94120   0.54160   0.86030   Biso      1.000     H          0.083874  
         H14       1.0000    0.43330   0.23690   0.73430   Biso      1.000     H          0.125386  
         H15       1.0000    0.13520   0.69820   0.35200   Biso      1.000     H          0.070365  
         H16       1.0000    0.56670   0.73690   0.76570   Biso      1.000     H          0.125275  
         N1        1.0000    0.13650   0.06630   0.13310   Biso      1.000     N          -0.35635  
         N2        1.0000    0.36350   0.93370   0.63310   Biso      1.000     N          -0.35622  
         N3        1.0000    0.86350   0.56630   0.36690   Biso      1.000     N          -0.356125           
         N4        1.0000    0.63650   0.43370   0.86690   Biso      1.000     N          -0.356663           
         Np1       1.0000    0.49210   0.08055   0.51614   Biso      1.000     Np          1.534675  
         Np2       1.0000    0.99210   0.41945   0.48386   Biso      1.000     Np          1.534586  
         Np3       1.0000    0.50790   0.58055   0.98386   Biso      1.000     Np          1.534057  
         Np4       1.0000    0.00790   0.91945   0.01614   Biso      1.000     Np          1.53402   
         O1        1.0000    0.42310   0.10330   0.38680   Biso      1.000     O          -0.590747           
         O2        1.0000    0.17830   0.30390   0.37930   Biso      1.000     O          -0.603694           
         O3        1.0000    0.25380   0.22090   0.52960   Biso      1.000     O          -0.852098           
         O4        1.0000    0.07690   0.89670   0.88680   Biso      1.000     O          -0.590187           
         O5        1.0000    0.32170   0.69610   0.87930   Biso      1.000     O          -0.603193           
         O6        1.0000    0.24620   0.77910   0.02960   Biso      1.000     O          -0.851911           
         O7        1.0000    0.57690   0.60330   0.11320   Biso      1.000     O          -0.590118           
         O8        1.0000    0.82170   0.80390   0.12070   Biso      1.000     O          -0.603486           
         O9        1.0000    0.74620   0.72090   0.97040   Biso      1.000     O          -0.851931           
         O10       1.0000    0.92310   0.39670   0.61320   Biso      1.000     O          -0.590758           
         O11       1.0000    0.67830   0.19610   0.62070   Biso      1.000     O          -0.603666           
         O12       1.0000    0.75380   0.27910   0.47040   Biso      1.000     O          -0.852117 