
##########################################################################
#               Crystallographic Information Format file
#               Produced by PyCifRW module
#
#  This is a CIF file.  CIF has been adopted by the International
#  Union of Crystallography as the standard for data archiving and
#  transmission.
#
#  For information on this file format, follow the CIF links at
#  http://www.iucr.org
##########################################################################

data_image0

_cell_length_a                          7.7969
_cell_length_b                          8.5017
_cell_length_c                          9.0179
_cell_angle_alpha                       78.669
_cell_angle_beta                        68.372
_cell_angle_gamma                       83.634
_symmetry_space_group_name_H-M          'P 1'
_symmetry_int_tables_number             1
loop_
  _symmetry_equiv_pos_as_xyz
         'x, y, z' 
loop_
  _atom_site_label
  _atom_site_occupancy
  _atom_site_fract_x
  _atom_site_fract_y
  _atom_site_fract_z
  _atom_site_thermal_displace_type
  _atom_site_B_iso_or_equiv
  _atom_site_type_symbol
  _atom_site_charge
         Ba1       1.0000    0.40382   0.85107   0.27183   Biso      1.000     Ba          1.598327  
         Ba2       1.0000    0.59618   0.14893   0.72817   Biso      1.000     Ba          1.598354  
         C1        1.0000    0.21780   0.18010   0.03030   Biso      1.000     C          0.634045  
         C2        1.0000    0.11440   0.35820   0.23330   Biso      1.000     C          4.4e-05   
         C3        1.0000    0.94390   0.41180   0.36580   Biso      1.000     C          0.650857  
         C4        1.0000    0.78220   0.81990   0.96970   Biso      1.000     C          0.634051  
         C5        1.0000    0.94890   0.77090   0.83310   Biso      1.000     C          0.039976  
         C6        1.0000    0.88560   0.64180   0.76670   Biso      1.000     C          4.9e-05   
         C7        1.0000    0.05110   0.22910   0.16690   Biso      1.000     C          0.039976  
         C8        1.0000    0.05610   0.58820   0.63420   Biso      1.000     C          0.650854  
         H1        1.0000    0.01890   0.13900   0.27520   Biso      1.000     H          0.046557999999999995          
         H2        1.0000    0.20010   0.31700   0.28270   Biso      1.000     H          0.084547  
         H3        1.0000    0.98110   0.86100   0.72480   Biso      1.000     H          0.046558999999999996          
         H4        1.0000    0.79990   0.68300   0.71730   Biso      1.000     H          0.084537  
         O1        1.0000    0.18810   0.48800   0.10920   Biso      1.000     O          -0.647738           
         O2        1.0000    0.20770   0.21630   0.88880   Biso      1.000     O          -0.658741           
         O3        1.0000    0.88380   0.55670   0.32910   Biso      1.000     O          -0.638735           
         O4        1.0000    0.35930   0.11930   0.05460   Biso      1.000     O          -0.647122           
         O5        1.0000    0.87220   0.32300   0.49410   Biso      1.000     O          -0.649827           
         O6        1.0000    0.13470   0.81560   0.15650   Biso      1.000     O          -0.889018           
         O7        1.0000    0.09230   0.71150   0.88850   Biso      1.000     O          -0.651567           
         O8        1.0000    0.79230   0.78370   0.11120   Biso      1.000     O          -0.658734           
         O9        1.0000    0.11620   0.44330   0.67090   Biso      1.000     O          -0.6387470000000001           
         O10       1.0000    0.64070   0.88070   0.94540   Biso      1.000     O          -0.647126           
         O11       1.0000    0.12780   0.67700   0.50590   Biso      1.000     O          -0.6498229999999999           
         O12       1.0000    0.90770   0.28850   0.11150   Biso      1.000     O          -0.651571           
         O13       1.0000    0.81190   0.51200   0.89080   Biso      1.000     O          -0.64774  
         O14       1.0000    0.86530   0.18440   0.84350   Biso      1.000     O          -0.8890450000000001           
         V1        1.0000    0.96696   0.31852   0.88245   Biso      1.000     V          1.728402  
         V2        1.0000    0.03304   0.68148   0.11755   Biso      1.000     V          1.7283990000000002 