
##########################################################################
#               Crystallographic Information Format file
#               Produced by PyCifRW module
#
#  This is a CIF file.  CIF has been adopted by the International
#  Union of Crystallography as the standard for data archiving and
#  transmission.
#
#  For information on this file format, follow the CIF links at
#  http://www.iucr.org
##########################################################################

data_image0

_cell_length_a                          6.8091
_cell_length_b                          16.4128
_cell_length_c                          13.5674
_cell_angle_alpha                       90
_cell_angle_beta                        90
_cell_angle_gamma                       90
_symmetry_space_group_name_H-M          'P 1'
_symmetry_int_tables_number             1
loop_
  _symmetry_equiv_pos_as_xyz
         'x, y, z' 
loop_
  _atom_site_label
  _atom_site_occupancy
  _atom_site_fract_x
  _atom_site_fract_y
  _atom_site_fract_z
  _atom_site_thermal_displace_type
  _atom_site_B_iso_or_equiv
  _atom_site_type_symbol
  _atom_site_charge
         C1        1.0000    0.82250   0.46710   0.97390   Biso      1.000     C          -0.11006400000000001          
         C2        1.0000    0.52190   0.63660   0.36670   Biso      1.000     C          0.617959  
         C3        1.0000    0.83250   0.53230   0.03690   Biso      1.000     C          -0.103152           
         C4        1.0000    0.16750   0.46770   0.96310   Biso      1.000     C          -0.10315799999999999          
         C5        1.0000    0.99110   0.43510   0.93500   Biso      1.000     C          -0.01481  
         C6        1.0000    0.97810   0.36340   0.86670   Biso      1.000     C          0.617958  
         C7        1.0000    0.17750   0.53290   0.02610   Biso      1.000     C          -0.11005799999999999          
         C8        1.0000    0.67750   0.96710   0.47390   Biso      1.000     C          -0.11006400000000001          
         C9        1.0000    0.33250   0.96770   0.46310   Biso      1.000     C          -0.10315799999999999          
         C10       1.0000    0.50890   0.93510   0.43500   Biso      1.000     C          -0.01481  
         C11       1.0000    0.52190   0.86340   0.36670   Biso      1.000     C          0.617958  
         C12       1.0000    0.47810   0.36340   0.63330   Biso      1.000     C          0.617959  
         C13       1.0000    0.82250   0.03290   0.97390   Biso      1.000     C          -0.11006400000000001          
         C14       1.0000    0.16750   0.03230   0.96310   Biso      1.000     C          -0.10315799999999999          
         C15       1.0000    0.99110   0.06490   0.93500   Biso      1.000     C          -0.01481  
         C16       1.0000    0.97810   0.13660   0.86670   Biso      1.000     C          0.617958  
         C17       1.0000    0.49110   0.43510   0.56500   Biso      1.000     C          -0.014822           
         C18       1.0000    0.32250   0.46710   0.52610   Biso      1.000     C          -0.110056           
         C19       1.0000    0.50890   0.56490   0.43500   Biso      1.000     C          -0.014823           
         C20       1.0000    0.33250   0.53230   0.46310   Biso      1.000     C          -0.103148           
         C21       1.0000    0.66750   0.46770   0.53690   Biso      1.000     C          -0.103154           
         C22       1.0000    0.17750   0.96710   0.02610   Biso      1.000     C          -0.11005699999999999          
         C23       1.0000    0.67750   0.53290   0.47390   Biso      1.000     C          -0.110049           
         C24       1.0000    0.00890   0.56490   0.06500   Biso      1.000     C          -0.014811000000000001         
         C25       1.0000    0.02190   0.63660   0.13330   Biso      1.000     C          0.617958  
         C26       1.0000    0.32250   0.03290   0.52610   Biso      1.000     C          -0.11005799999999999          
         C27       1.0000    0.02190   0.86340   0.13330   Biso      1.000     C          0.617959  
         C28       1.0000    0.66750   0.03230   0.53690   Biso      1.000     C          -0.103152           
         C29       1.0000    0.00890   0.93510   0.06500   Biso      1.000     C          -0.014816           
         C30       1.0000    0.83250   0.96770   0.03690   Biso      1.000     C          -0.103147           
         C31       1.0000    0.49110   0.06490   0.56500   Biso      1.000     C          -0.014811000000000001         
         C32       1.0000    0.47810   0.13660   0.63330   Biso      1.000     C          0.617958  
         H1        1.0000    0.78300   0.44520   0.56110   Biso      1.000     H          0.12328199999999999           
         H2        1.0000    0.20150   0.05540   0.54250   Biso      1.000     H          0.126721  
         H3        1.0000    0.28300   0.05480   0.93890   Biso      1.000     H          0.12328199999999999           
         H4        1.0000    0.78300   0.05480   0.56110   Biso      1.000     H          0.12328199999999999           
         H5        1.0000    0.70150   0.05540   0.95750   Biso      1.000     H          0.126722  
         H6        1.0000    0.21700   0.55480   0.43890   Biso      1.000     H          0.12328099999999999           
         H7        1.0000    0.79850   0.55540   0.45750   Biso      1.000     H          0.126721  
         H8        1.0000    0.29850   0.94460   0.04250   Biso      1.000     H          0.126721  
         H9        1.0000    0.29850   0.55540   0.04250   Biso      1.000     H          0.126721  
         H10       1.0000    0.71700   0.94520   0.06110   Biso      1.000     H          0.12328099999999999           
         H11       1.0000    0.28300   0.44520   0.93890   Biso      1.000     H          0.12328199999999999           
         H12       1.0000    0.70150   0.44460   0.95750   Biso      1.000     H          0.126722  
         H13       1.0000    0.20150   0.44460   0.54250   Biso      1.000     H          0.126721  
         H14       1.0000    0.71700   0.55480   0.06110   Biso      1.000     H          0.12328199999999999           
         H15       1.0000    0.21700   0.94520   0.43890   Biso      1.000     H          0.12328199999999999           
         H16       1.0000    0.79850   0.94460   0.45750   Biso      1.000     H          0.126722  
         O1        1.0000    0.47510   0.25000   0.80840   Biso      1.000     O          -0.8023899999999999           
         O2        1.0000    0.02490   0.75000   0.30840   Biso      1.000     O          -0.802391           
         O3        1.0000    0.18820   0.66320   0.15550   Biso      1.000     O          -0.577455           
         O4        1.0000    0.85850   0.66260   0.16650   Biso      1.000     O          -0.577862           
         O5        1.0000    0.52490   0.75000   0.19160   Biso      1.000     O          -0.802391           
         O6        1.0000    0.31180   0.16320   0.65550   Biso      1.000     O          -0.577454           
         O7        1.0000    0.31180   0.33680   0.65550   Biso      1.000     O          -0.577454           
         O8        1.0000    0.64150   0.16260   0.66650   Biso      1.000     O          -0.577861           
         O9        1.0000    0.18820   0.83680   0.15550   Biso      1.000     O          -0.577455           
         O10       1.0000    0.85850   0.83740   0.16650   Biso      1.000     O          -0.577862           
         O11       1.0000    0.68820   0.66320   0.34450   Biso      1.000     O          -0.577455           
         O12       1.0000    0.64150   0.33740   0.66650   Biso      1.000     O          -0.577861           
         O13       1.0000    0.81180   0.33680   0.84450   Biso      1.000     O          -0.577454           
         O14       1.0000    0.35850   0.66260   0.33350   Biso      1.000     O          -0.577862           
         O15       1.0000    0.68820   0.83680   0.34450   Biso      1.000     O          -0.577455           
         O16       1.0000    0.35850   0.83740   0.33350   Biso      1.000     O          -0.577862           
         O17       1.0000    0.97510   0.25000   0.69160   Biso      1.000     O          -0.8023899999999999           
         O18       1.0000    0.81180   0.16320   0.84450   Biso      1.000     O          -0.577454           
         O19       1.0000    0.14150   0.16260   0.83350   Biso      1.000     O          -0.577861           
         O20       1.0000    0.14150   0.33740   0.83350   Biso      1.000     O          -0.577861           
         V1        1.0000    0.20020   0.25000   0.73916   Biso      1.000     V          1.83315   
         V2        1.0000    0.29980   0.75000   0.23916   Biso      1.000     V          1.8331540000000002  
         V3        1.0000    0.79980   0.75000   0.26084   Biso      1.000     V          1.8331540000000002  
         V4        1.0000    0.70020   0.25000   0.76084   Biso      1.000     V          1.83315 