
##########################################################################
#               Crystallographic Information Format file
#               Produced by PyCifRW module
#
#  This is a CIF file.  CIF has been adopted by the International
#  Union of Crystallography as the standard for data archiving and
#  transmission.
#
#  For information on this file format, follow the CIF links at
#  http://www.iucr.org
##########################################################################

data_image0

_cell_length_a                          11.9144
_cell_length_b                          14.0146
_cell_length_c                          15.7686
_cell_angle_alpha                       91.9017
_cell_angle_beta                        112.197
_cell_angle_gamma                       90
_symmetry_space_group_name_H-M          'P 1'
_symmetry_int_tables_number             1
loop_
  _symmetry_equiv_pos_as_xyz
         'x, y, z' 
loop_
  _atom_site_label
  _atom_site_occupancy
  _atom_site_fract_x
  _atom_site_fract_y
  _atom_site_fract_z
  _atom_site_thermal_displace_type
  _atom_site_B_iso_or_equiv
  _atom_site_type_symbol
  _atom_site_charge
         C1        1.0000    0.48328   0.35190   0.75036   Biso      1.000     C          -0.190187           
         C2        1.0000    0.37456   0.11310   0.76372   Biso      1.000     C          -0.18473900000000001          
         C3        1.0000    0.27410   0.11100   0.68320   Biso      1.000     C          0.09892999999999999           
         C4        1.0000    0.46450   0.11710   0.93700   Biso      1.000     C          0.284287  
         C5        1.0000    0.59069   0.12340   0.93778   Biso      1.000     C          -0.560673           
         C6        1.0000    0.38780   0.13440   0.16260   Biso      1.000     C          -0.56648  
         C7        1.0000    0.51062   0.13310   0.16124   Biso      1.000     C          0.290263  
         C8        1.0000    0.35899   0.10940   0.84638   Biso      1.000     C          0.065581  
         C9        1.0000    0.61791   0.13890   0.25022   Biso      1.000     C          0.047952999999999996          
         C10       1.0000    0.71179   0.13790   0.41238   Biso      1.000     C          0.11750899999999999           
         C11       1.0000    0.83071   0.15210   0.33062   Biso      1.000     C          0.08027100000000001           
         C12       1.0000    0.73292   0.14810   0.24964   Biso      1.000     C          -0.190154           
         C13       1.0000    0.91184   0.26250   0.63748   Biso      1.000     C          0.642131  
         C14       1.0000    0.87464   0.34090   0.69168   Biso      1.000     C          -0.317702           
         C15       1.0000    0.81620   0.42660   0.63480   Biso      1.000     C          -0.32287  
         C16       1.0000    0.60802   0.13470   0.33484   Biso      1.000     C          -0.17209100000000002          
         C17       1.0000    0.69158   0.40500   0.56536   Biso      1.000     C          0.651624  
         C18       1.0000    0.24254   0.09860   0.84368   Biso      1.000     C          -0.171602           
         C19       1.0000    0.12622   0.09500   0.43464   Biso      1.000     C          0.6505270000000001  
         C20       1.0000    0.51261   0.39060   0.15362   Biso      1.000     C          0.063981  
         C21       1.0000    0.61084   0.38690   0.23628   Biso      1.000     C          -0.183086           
         C22       1.0000    0.59090   0.38900   0.31680   Biso      1.000     C          0.09959   
         C23       1.0000    0.52750   0.38290   0.06300   Biso      1.000     C          0.283815  
         C24       1.0000    0.65291   0.37660   0.06222   Biso      1.000     C          -0.5615979999999999           
         C25       1.0000    0.22520   0.36560   0.83740   Biso      1.000     C          -0.569221           
         C26       1.0000    0.14788   0.09700   0.76016   Biso      1.000     C          0.07940599999999999           
         C27       1.0000    0.34938   0.36690   0.83876   Biso      1.000     C          0.295042  
         C28       1.0000    0.27318   0.36530   0.66516   Biso      1.000     C          -0.169957           
         C29       1.0000    0.29941   0.36210   0.58762   Biso      1.000     C          0.11596500000000001           
         C30       1.0000    0.50009   0.34790   0.66938   Biso      1.000     C          0.081076  
         C31       1.0000    0.27436   0.23750   0.36252   Biso      1.000     C          0.6428189999999999  
         C32       1.0000    0.18296   0.15910   0.30832   Biso      1.000     C          -0.320129           
         C33       1.0000    0.18140   0.07340   0.36520   Biso      1.000     C          -0.32408200000000004          
         C34       1.0000    0.36769   0.36110   0.74978   Biso      1.000     C          0.045795999999999996          
         C35       1.0000    0.61228   0.59700   0.76016   Biso      1.000     C          0.079435  
         C36       1.0000    0.60114   0.59860   0.84368   Biso      1.000     C          -0.169715           
         C37       1.0000    0.48739   0.60940   0.84638   Biso      1.000     C          0.063984  
         C38       1.0000    0.72590   0.88900   0.31680   Biso      1.000     C          0.09892000000000001           
         C39       1.0000    0.53550   0.88290   0.06300   Biso      1.000     C          0.284287  
         C40       1.0000    0.40931   0.87660   0.06222   Biso      1.000     C          -0.560673           
         C41       1.0000    0.61220   0.86560   0.83740   Biso      1.000     C          -0.56648  
         C42       1.0000    0.48938   0.86690   0.83876   Biso      1.000     C          0.290263  
         C43       1.0000    0.38209   0.86110   0.74978   Biso      1.000     C          0.047952999999999996          
         C44       1.0000    0.62544   0.88690   0.23628   Biso      1.000     C          -0.184729           
         C45       1.0000    0.39198   0.86530   0.66516   Biso      1.000     C          -0.17209100000000002          
         C46       1.0000    0.16929   0.84790   0.66938   Biso      1.000     C          0.08027100000000001           
         C47       1.0000    0.26708   0.85190   0.75036   Biso      1.000     C          -0.190154           
         C48       1.0000    0.08816   0.73750   0.36252   Biso      1.000     C          0.642131  
         C49       1.0000    0.12536   0.65910   0.30832   Biso      1.000     C          -0.317702           
         C50       1.0000    0.18380   0.57340   0.36520   Biso      1.000     C          -0.32287  
         C51       1.0000    0.30842   0.59500   0.43464   Biso      1.000     C          0.651624  
         C52       1.0000    0.28821   0.86210   0.58762   Biso      1.000     C          0.11750899999999999           
         C53       1.0000    0.64101   0.89060   0.15362   Biso      1.000     C          0.06558   
         C54       1.0000    0.75746   0.90140   0.15632   Biso      1.000     C          -0.171602           
         C55       1.0000    0.85212   0.90300   0.23984   Biso      1.000     C          0.07940599999999999           
         C56       1.0000    0.38916   0.61310   0.76372   Biso      1.000     C          -0.183087           
         C57       1.0000    0.40910   0.61100   0.68320   Biso      1.000     C          0.09959   
         C58       1.0000    0.47250   0.61710   0.93700   Biso      1.000     C          0.283815  
         C59       1.0000    0.34709   0.62340   0.93778   Biso      1.000     C          -0.5615979999999999           
         C60       1.0000    0.77480   0.63440   0.16260   Biso      1.000     C          -0.569221           
         C61       1.0000    0.65062   0.63310   0.16124   Biso      1.000     C          0.295042  
         C62       1.0000    0.63231   0.63890   0.25022   Biso      1.000     C          0.045792  
         C63       1.0000    0.72682   0.63470   0.33484   Biso      1.000     C          -0.169956           
         C64       1.0000    0.70059   0.63790   0.41238   Biso      1.000     C          0.11596500000000001           
         C65       1.0000    0.49991   0.65210   0.33062   Biso      1.000     C          0.081066  
         C66       1.0000    0.51672   0.64810   0.24964   Biso      1.000     C          -0.190174           
         C67       1.0000    0.72564   0.76250   0.63748   Biso      1.000     C          0.6428189999999999  
         C68       1.0000    0.81704   0.84090   0.69168   Biso      1.000     C          -0.320129           
         C69       1.0000    0.81860   0.92660   0.63480   Biso      1.000     C          -0.32408200000000004          
         C70       1.0000    0.87378   0.90500   0.56536   Biso      1.000     C          0.6505270000000001  
         C71       1.0000    0.39886   0.40140   0.15632   Biso      1.000     C          -0.169717           
         C72       1.0000    0.38772   0.40300   0.23984   Biso      1.000     C          0.079439  
         Cd1       1.0000    0.44796   0.37246   0.45452   Biso      1.000     Cd          0.852483  
         Cd2       1.0000    0.99344   0.12754   0.54548   Biso      1.000     Cd          0.851892  
         Cd3       1.0000    0.55204   0.62754   0.54548   Biso      1.000     Cd          0.852483  
         Cd4       1.0000    0.00656   0.87246   0.45452   Biso      1.000     Cd          0.851892  
         H1        1.0000    0.05410   0.63730   0.25660   Biso      1.000     H          0.123445  
         H2        1.0000    0.18190   0.68610   0.28440   Biso      1.000     H          0.11836600000000001           
         H3        1.0000    0.22850   0.09250   0.89740   Biso      1.000     H          0.128907  
         H4        1.0000    0.45190   0.11690   0.76260   Biso      1.000     H          0.13014900000000001           
         H5        1.0000    0.28560   0.11410   0.62820   Biso      1.000     H          0.100747  
         H6        1.0000    0.64800   0.12760   0.00000   Biso      1.000     H          0.174703  
         H7        1.0000    0.59840   0.17920   0.90660   Biso      1.000     H          0.181325  
         H8        1.0000    0.60650   0.06760   0.90740   Biso      1.000     H          0.181267  
         H9        1.0000    0.37690   0.19270   0.19200   Biso      1.000     H          0.185692  
         H10       1.0000    0.26380   0.05220   0.39640   Biso      1.000     H          0.148398  
         H11       1.0000    0.37710   0.08110   0.19560   Biso      1.000     H          0.18127200000000002           
         H12       1.0000    0.53250   0.12970   0.33900   Biso      1.000     H          0.137017  
         H13       1.0000    0.70400   0.13470   0.46880   Biso      1.000     H          0.10803   
         H14       1.0000    0.90740   0.16000   0.32900   Biso      1.000     H          0.095554  
         H15       1.0000    0.74370   0.15150   0.19440   Biso      1.000     H          0.11775899999999999           
         H16       1.0000    0.32900   0.13030   0.10080   Biso      1.000     H          0.1712    
         H17       1.0000    0.13590   0.02160   0.32440   Biso      1.000     H          0.135303  
         H18       1.0000    0.10250   0.18610   0.28440   Biso      1.000     H          0.11900999999999999           
         H19       1.0000    0.81810   0.31390   0.71560   Biso      1.000     H          0.11836600000000001           
         H20       1.0000    0.31060   0.40990   0.24100   Biso      1.000     H          0.099334  
         H21       1.0000    0.33110   0.40750   0.10260   Biso      1.000     H          0.128391  
         H22       1.0000    0.68930   0.38310   0.23740   Biso      1.000     H          0.129197  
         H23       1.0000    0.65740   0.38590   0.37180   Biso      1.000     H          0.100161  
         H24       1.0000    0.64800   0.37240   0.00000   Biso      1.000     H          0.174788  
         H25       1.0000    0.69180   0.32080   0.09340   Biso      1.000     H          0.181671  
         H26       1.0000    0.20250   0.13730   0.25660   Biso      1.000     H          0.124498  
         H27       1.0000    0.69910   0.43240   0.09260   Biso      1.000     H          0.181781  
         H28       1.0000    0.18490   0.30730   0.80800   Biso      1.000     H          0.18621   
         H29       1.0000    0.18150   0.41890   0.80440   Biso      1.000     H          0.18242   
         H30       1.0000    0.19350   0.37030   0.66100   Biso      1.000     H          0.136239  
         H31       1.0000    0.23520   0.36530   0.53120   Biso      1.000     H          0.108349  
         H32       1.0000    0.57840   0.34000   0.67100   Biso      1.000     H          0.09553400000000001           
         H33       1.0000    0.54930   0.34850   0.80560   Biso      1.000     H          0.117729  
         H34       1.0000    0.22820   0.36970   0.89920   Biso      1.000     H          0.17094700000000002           
         H35       1.0000    0.94590   0.36270   0.74340   Biso      1.000     H          0.123445  
         H36       1.0000    0.06960   0.09010   0.75900   Biso      1.000     H          0.100145  
         H37       1.0000    0.86740   0.44780   0.60360   Biso      1.000     H          0.147896  
         H38       1.0000    0.77150   0.90750   0.10260   Biso      1.000     H          0.128907  
         H39       1.0000    0.54810   0.88310   0.23740   Biso      1.000     H          0.13014900000000001           
         H40       1.0000    0.71440   0.88590   0.37180   Biso      1.000     H          0.100748  
         H41       1.0000    0.35200   0.87240   0.00000   Biso      1.000     H          0.174703  
         H42       1.0000    0.40160   0.82080   0.09340   Biso      1.000     H          0.181325  
         H43       1.0000    0.39350   0.93240   0.09260   Biso      1.000     H          0.181267  
         H44       1.0000    0.67100   0.86970   0.89920   Biso      1.000     H          0.1712    
         H45       1.0000    0.62310   0.80730   0.80800   Biso      1.000     H          0.185692  
         H46       1.0000    0.62290   0.91890   0.80440   Biso      1.000     H          0.18127200000000002           
         H47       1.0000    0.46750   0.87030   0.66100   Biso      1.000     H          0.137017  
         H48       1.0000    0.29600   0.86530   0.53120   Biso      1.000     H          0.10803   
         H49       1.0000    0.09260   0.84000   0.67100   Biso      1.000     H          0.095554  
         H50       1.0000    0.81150   0.47840   0.67560   Biso      1.000     H          0.134458  
         H51       1.0000    0.13260   0.55220   0.39640   Biso      1.000     H          0.147896  
         H52       1.0000    0.18850   0.52160   0.32440   Biso      1.000     H          0.134458  
         H53       1.0000    0.93040   0.90990   0.24100   Biso      1.000     H          0.100145  
         H54       1.0000    0.73620   0.94780   0.60360   Biso      1.000     H          0.148398  
         H55       1.0000    0.25630   0.84850   0.80560   Biso      1.000     H          0.11775899999999999           
         H56       1.0000    0.79750   0.86270   0.74340   Biso      1.000     H          0.124498  
         H57       1.0000    0.68940   0.59010   0.75900   Biso      1.000     H          0.099335  
         H58       1.0000    0.66890   0.59250   0.89740   Biso      1.000     H          0.128391  
         H59       1.0000    0.31070   0.61690   0.76260   Biso      1.000     H          0.129197  
         H60       1.0000    0.34260   0.61410   0.62820   Biso      1.000     H          0.100161  
         H61       1.0000    0.30820   0.67920   0.90660   Biso      1.000     H          0.181671  
         H62       1.0000    0.30090   0.56760   0.90740   Biso      1.000     H          0.181781  
         H63       1.0000    0.77180   0.63030   0.10080   Biso      1.000     H          0.17094700000000002           
         H64       1.0000    0.35200   0.62760   0.00000   Biso      1.000     H          0.174788  
         H65       1.0000    0.81850   0.58110   0.19560   Biso      1.000     H          0.18242   
         H66       1.0000    0.80650   0.62970   0.33900   Biso      1.000     H          0.136239  
         H67       1.0000    0.76480   0.63470   0.46880   Biso      1.000     H          0.108349  
         H68       1.0000    0.42160   0.66000   0.32900   Biso      1.000     H          0.09553500000000001           
         H69       1.0000    0.45070   0.65150   0.19440   Biso      1.000     H          0.117728  
         H70       1.0000    0.89750   0.81390   0.71560   Biso      1.000     H          0.11900999999999999           
         H71       1.0000    0.81510   0.69270   0.19200   Biso      1.000     H          0.18621   
         H72       1.0000    0.86410   0.97840   0.67560   Biso      1.000     H          0.135303  
         N1        1.0000    0.51845   0.60490   0.68030   Biso      1.000     N          -0.210211           
         N2        1.0000    0.17811   0.85460   0.58802   Biso      1.000     N          -0.19666199999999998          
         N3        1.0000    0.46366   0.87150   0.90912   Biso      1.000     N          -0.23289400000000002          
         N4        1.0000    0.56475   0.87990   0.99250   Biso      1.000     N          -0.224846           
         N5        1.0000    0.83815   0.89510   0.31970   Biso      1.000     N          -0.210304           
         N6        1.0000    0.59009   0.64540   0.41198   Biso      1.000     N          -0.19747699999999999          
         N7        1.0000    0.55454   0.62850   0.09088   Biso      1.000     N          -0.23398200000000002          
         N8        1.0000    0.57225   0.62010   0.00750   Biso      1.000     N          -0.22478299999999998          
         N9        1.0000    0.82189   0.14540   0.41198   Biso      1.000     N          -0.19666199999999998          
         N10       1.0000    0.43525   0.12010   0.00750   Biso      1.000     N          -0.224848           
         N11       1.0000    0.16185   0.10490   0.68030   Biso      1.000     N          -0.21030500000000002          
         N12       1.0000    0.40991   0.35460   0.58802   Biso      1.000     N          -0.197478           
         N13       1.0000    0.44546   0.37150   0.90912   Biso      1.000     N          -0.23398200000000002          
         N14       1.0000    0.42775   0.37990   0.99250   Biso      1.000     N          -0.22478299999999998          
         N15       1.0000    0.48155   0.39510   0.31970   Biso      1.000     N          -0.210211           
         N16       1.0000    0.53634   0.12850   0.09088   Biso      1.000     N          -0.232893           
         O1        1.0000    0.11079   0.82290   0.35478   Biso      1.000     O          -0.61397  
         O2        1.0000    0.03098   0.71310   0.41036   Biso      1.000     O          -0.599316           
         O3        1.0000    0.91702   0.97310   0.53724   Biso      1.000     O          -0.60668  
         O4        1.0000    0.87989   0.82180   0.53818   Biso      1.000     O          -0.5554439999999999           
         O5        1.0000    0.75601   0.67710   0.64522   Biso      1.000     O          -0.61357  
         O6        1.0000    0.62062   0.78690   0.58964   Biso      1.000     O          -0.600133           
         O7        1.0000    0.62022   0.47310   0.53724   Biso      1.000     O          -0.607576           
         O8        1.0000    0.96902   0.28690   0.58964   Biso      1.000     O          -0.599316           
         O9        1.0000    0.88921   0.17710   0.64522   Biso      1.000     O          -0.61397  
         O10       1.0000    0.08298   0.02690   0.46276   Biso      1.000     O          -0.60668  
         O11       1.0000    0.12011   0.17820   0.46182   Biso      1.000     O          -0.555445           
         O12       1.0000    0.24399   0.32290   0.35478   Biso      1.000     O          -0.61357  
         O13       1.0000    0.37938   0.21310   0.41036   Biso      1.000     O          -0.600133           
         O14       1.0000    0.34171   0.67820   0.46182   Biso      1.000     O          -0.556134           
         O15       1.0000    0.65829   0.32180   0.53818   Biso      1.000     O          -0.556134           
         O16       1.0000    0.37978   0.52690   0.46276   Biso      1.000     O          -0.607576 