
##########################################################################
#               Crystallographic Information Format file
#               Produced by PyCifRW module
#
#  This is a CIF file.  CIF has been adopted by the International
#  Union of Crystallography as the standard for data archiving and
#  transmission.
#
#  For information on this file format, follow the CIF links at
#  http://www.iucr.org
##########################################################################

data_image0

_cell_length_a                          5.7328
_cell_length_b                          10.9152
_cell_length_c                          11.2665
_cell_angle_alpha                       90
_cell_angle_beta                        97.106
_cell_angle_gamma                       90
_symmetry_space_group_name_H-M          'P 1'
_symmetry_int_tables_number             1
loop_
  _symmetry_equiv_pos_as_xyz
         'x, y, z' 
loop_
  _atom_site_label
  _atom_site_occupancy
  _atom_site_fract_x
  _atom_site_fract_y
  _atom_site_fract_z
  _atom_site_thermal_displace_type
  _atom_site_B_iso_or_equiv
  _atom_site_type_symbol
  _atom_site_charge
         C1        1.0000    0.93990   0.70020   0.10220   Biso      1.000     C          -0.194393           
         C2        1.0000    0.21620   0.37220   0.05870   Biso      1.000     C          -0.376542           
         C3        1.0000    0.71620   0.62780   0.05870   Biso      1.000     C          -0.37654099999999996          
         C4        1.0000    0.85710   0.78680   0.40680   Biso      1.000     C          -0.185882           
         C5        1.0000    0.05570   0.87410   0.44900   Biso      1.000     C          -0.382245           
         C6        1.0000    0.55570   0.12590   0.44900   Biso      1.000     C          -0.382245           
         C7        1.0000    0.35710   0.21320   0.40680   Biso      1.000     C          -0.185882           
         C8        1.0000    0.43990   0.29980   0.10220   Biso      1.000     C          -0.194392           
         H1        1.0000    0.61170   0.62860   0.12240   Biso      1.000     H          0.133716  
         H2        1.0000    0.20300   0.48800   0.56900   Biso      1.000     H          0.49573500000000004           
         H3        1.0000    0.10900   0.40600   0.61200   Biso      1.000     H          0.49471499999999996           
         H4        1.0000    0.57400   0.98600   0.92800   Biso      1.000     H          0.5028819999999999  
         H5        1.0000    0.68400   0.08400   0.89800   Biso      1.000     H          0.5115149999999999  
         H6        1.0000    0.48980   0.04510   0.46680   Biso      1.000     H          0.154757  
         H7        1.0000    0.65680   0.11470   0.38470   Biso      1.000     H          0.12659600000000001           
         H8        1.0000    0.25860   0.22500   0.47210   Biso      1.000     H          0.132845  
         H9        1.0000    0.42460   0.29370   0.38940   Biso      1.000     H          0.114604  
         H10       1.0000    0.54050   0.29830   0.03680   Biso      1.000     H          0.137245  
         H11       1.0000    0.52690   0.34490   0.17000   Biso      1.000     H          0.12404000000000001           
         H12       1.0000    0.11170   0.37140   0.12240   Biso      1.000     H          0.133716  
         H13       1.0000    0.25990   0.45850   0.04570   Biso      1.000     H          0.156459  
         H14       1.0000    0.60900   0.59400   0.61200   Biso      1.000     H          0.49471499999999996           
         H15       1.0000    0.07400   0.01400   0.92800   Biso      1.000     H          0.502881  
         H16       1.0000    0.18400   0.91600   0.89800   Biso      1.000     H          0.5115149999999999  
         H17       1.0000    0.98980   0.95490   0.46680   Biso      1.000     H          0.15475799999999998           
         H18       1.0000    0.15680   0.88530   0.38470   Biso      1.000     H          0.12659600000000001           
         H19       1.0000    0.75860   0.77500   0.47210   Biso      1.000     H          0.13284400000000002           
         H20       1.0000    0.92460   0.70630   0.38940   Biso      1.000     H          0.114604  
         H21       1.0000    0.04050   0.70170   0.03680   Biso      1.000     H          0.137245  
         H22       1.0000    0.02690   0.65510   0.17000   Biso      1.000     H          0.12404000000000001           
         H23       1.0000    0.75990   0.54150   0.04570   Biso      1.000     H          0.156459  
         H24       1.0000    0.70300   0.51200   0.56900   Biso      1.000     H          0.495734  
         Na1       1.0000    0.77200   0.90558   0.74548   Biso      1.000     Na          0.8689049999999999  
         Na2       1.0000    0.52409   0.40532   0.76522   Biso      1.000     Na          0.8733860000000001  
         Na3       1.0000    0.27200   0.09442   0.74548   Biso      1.000     Na          0.868906  
         Na4       1.0000    0.02409   0.59468   0.76522   Biso      1.000     Na          0.8733860000000001  
         O1        1.0000    0.85230   0.29000   0.53982   Biso      1.000     O          -0.651807           
         O2        1.0000    0.88980   0.08517   0.62452   Biso      1.000     O          -0.714514           
         O3        1.0000    0.56360   0.21572   0.66323   Biso      1.000     O          -0.7169770000000001           
         O4        1.0000    0.92400   0.20872   0.95658   Biso      1.000     O          -0.6386350000000001           
         O5        1.0000    0.23130   0.28386   0.84467   Biso      1.000     O          -0.710104           
         O6        1.0000    0.90400   0.41544   0.87786   Biso      1.000     O          -0.728993           
         O7        1.0000    0.69350   0.54154   0.62980   Biso      1.000     O          -1.020199           
         O8        1.0000    0.09350   0.96640   0.88078   Biso      1.000     O          -1.05805  
         O9        1.0000    0.35230   0.71000   0.53982   Biso      1.000     O          -0.651807           
         O10       1.0000    0.38980   0.91483   0.62452   Biso      1.000     O          -0.714514           
         O11       1.0000    0.06360   0.78428   0.66323   Biso      1.000     O          -0.7169770000000001           
         O12       1.0000    0.42400   0.79128   0.95658   Biso      1.000     O          -0.638636           
         O13       1.0000    0.73130   0.71614   0.84467   Biso      1.000     O          -0.710104           
         O14       1.0000    0.40400   0.58456   0.87786   Biso      1.000     O          -0.7289939999999999           
         O15       1.0000    0.59350   0.03360   0.88078   Biso      1.000     O          -1.058051           
         O16       1.0000    0.19350   0.45846   0.62980   Biso      1.000     O          -1.020198           
         S1        1.0000    0.72768   0.18324   0.57943   Biso      1.000     S          1.294188  
         S2        1.0000    0.17117   0.15983   0.27364   Biso      1.000     S          -0.012491           
         S3        1.0000    0.39874   0.14314   0.14969   Biso      1.000     S          -0.015612000000000001         
         S4        1.0000    0.05708   0.31465   0.92415   Biso      1.000     S          1.284856  
         S5        1.0000    0.22768   0.81676   0.57943   Biso      1.000     S          1.294188  
         S6        1.0000    0.67117   0.84017   0.27364   Biso      1.000     S          -0.012490000000000001         
         S7        1.0000    0.89874   0.85686   0.14969   Biso      1.000     S          -0.015612000000000001         
         S8        1.0000    0.55708   0.68535   0.92415   Biso      1.000     S          1.284856 