
##########################################################################
#               Crystallographic Information Format file
#               Produced by PyCifRW module
#
#  This is a CIF file.  CIF has been adopted by the International
#  Union of Crystallography as the standard for data archiving and
#  transmission.
#
#  For information on this file format, follow the CIF links at
#  http://www.iucr.org
##########################################################################

data_image0

_cell_length_a                          10.2072
_cell_length_b                          11.7561
_cell_length_c                          14.9614
_cell_angle_alpha                       91.8639
_cell_angle_beta                        90
_cell_angle_gamma                       90
_symmetry_space_group_name_H-M          'P 1'
_symmetry_int_tables_number             1
loop_
  _symmetry_equiv_pos_as_xyz
         'x, y, z' 
loop_
  _atom_site_label
  _atom_site_occupancy
  _atom_site_fract_x
  _atom_site_fract_y
  _atom_site_fract_z
  _atom_site_thermal_displace_type
  _atom_site_B_iso_or_equiv
  _atom_site_type_symbol
  _atom_site_charge
         C1        1.0000    0.27550   0.06321   0.94031   Biso      1.000     C          0.525298  
         C2        1.0000    0.64040   0.55892   0.31952   Biso      1.000     C          0.533583  
         C3        1.0000    0.21240   0.92311   0.45001   Biso      1.000     C          0.528738  
         C4        1.0000    0.51860   0.98011   0.29141   Biso      1.000     C          0.525775  
         C5        1.0000    0.32540   0.67594   0.16854   Biso      1.000     C          0.531142  
         C6        1.0000    0.72450   0.93679   0.05969   Biso      1.000     C          0.525302  
         C7        1.0000    0.09710   0.74053   0.96413   Biso      1.000     C          0.533413  
         C8        1.0000    0.14040   0.94108   0.18048   Biso      1.000     C          0.533589  
         C9        1.0000    0.71240   0.57689   0.04999   Biso      1.000     C          0.528742  
         C10       1.0000    0.01860   0.51989   0.20859   Biso      1.000     C          0.52578   
         C11       1.0000    0.82540   0.82406   0.33146   Biso      1.000     C          0.531148  
         C12       1.0000    0.59710   0.75947   0.53587   Biso      1.000     C          0.533407  
         C13       1.0000    0.22450   0.56321   0.44031   Biso      1.000     C          0.525303  
         C14       1.0000    0.85960   0.05892   0.81952   Biso      1.000     C          0.53359   
         C15       1.0000    0.77550   0.43679   0.55969   Biso      1.000     C          0.525301  
         C16       1.0000    0.40290   0.24053   0.46413   Biso      1.000     C          0.533407  
         C17       1.0000    0.35960   0.44108   0.68048   Biso      1.000     C          0.533583  
         C18       1.0000    0.78760   0.07689   0.54999   Biso      1.000     C          0.528739  
         C19       1.0000    0.48140   0.01989   0.70859   Biso      1.000     C          0.525775  
         C20       1.0000    0.67460   0.32406   0.83146   Biso      1.000     C          0.53114   
         C21       1.0000    0.90290   0.25947   0.03587   Biso      1.000     C          0.533412  
         C22       1.0000    0.28760   0.42311   0.95001   Biso      1.000     C          0.52874   
         C23       1.0000    0.17460   0.17594   0.66854   Biso      1.000     C          0.531146  
         C24       1.0000    0.98140   0.48011   0.79141   Biso      1.000     C          0.525781  
         H1        1.0000    0.28600   0.46180   0.72380   Biso      1.000     H          0.024031  
         H2        1.0000    0.34700   0.19680   0.42580   Biso      1.000     H          0.031389  
         H3        1.0000    0.03400   0.48330   0.26530   Biso      1.000     H          0.032263  
         H4        1.0000    0.88500   0.06610   0.54110   Biso      1.000     H          0.030076  
         H5        1.0000    0.79300   0.49630   0.52730   Biso      1.000     H          0.034162  
         H6        1.0000    0.46600   0.98330   0.76530   Biso      1.000     H          0.032238  
         H7        1.0000    0.74700   0.34680   0.87080   Biso      1.000     H          0.028915  
         H8        1.0000    0.29300   0.00370   0.97270   Biso      1.000     H          0.034159  
         H9        1.0000    0.61500   0.56610   0.04110   Biso      1.000     H          0.03008   
         H10       1.0000    0.21400   0.96180   0.22380   Biso      1.000     H          0.024039  
         H11       1.0000    0.15300   0.69680   0.92580   Biso      1.000     H          0.031393  
         H12       1.0000    0.70700   0.99630   0.02730   Biso      1.000     H          0.03416   
         H13       1.0000    0.25300   0.65320   0.12920   Biso      1.000     H          0.028917  
         H14       1.0000    0.53400   0.01670   0.23470   Biso      1.000     H          0.032238  
         H15       1.0000    0.75300   0.84680   0.37080   Biso      1.000     H          0.028917  
         H16       1.0000    0.11500   0.93390   0.45890   Biso      1.000     H          0.030077  
         H17       1.0000    0.65300   0.80320   0.57420   Biso      1.000     H          0.031392  
         H18       1.0000    0.24700   0.15320   0.62920   Biso      1.000     H          0.028915  
         H19       1.0000    0.96600   0.51670   0.73470   Biso      1.000     H          0.032262  
         H20       1.0000    0.38500   0.43390   0.95890   Biso      1.000     H          0.030079  
         H21       1.0000    0.78600   0.03820   0.77620   Biso      1.000     H          0.024039  
         H22       1.0000    0.84700   0.30320   0.07420   Biso      1.000     H          0.031393  
         H23       1.0000    0.71400   0.53820   0.27620   Biso      1.000     H          0.024032  
         H24       1.0000    0.20700   0.50370   0.47270   Biso      1.000     H          0.034162  
         Mn1       1.0000    0.91931   0.75679   0.13165   Biso      1.000     Mn          0.9939    
         Mn2       1.0000    0.00000   0.00000   0.00000   Biso      1.000     Mn          1.009295  
         Mn3       1.0000    0.50000   0.50000   0.50000   Biso      1.000     Mn          1.009351  
         Mn4       1.0000    0.41931   0.74321   0.36835   Biso      1.000     Mn          0.993908  
         Mn5       1.0000    0.60688   0.76084   0.18718   Biso      1.000     Mn          0.979964  
         Mn6       1.0000    0.08069   0.24321   0.86835   Biso      1.000     Mn          0.993896  
         Mn7       1.0000    0.89312   0.26084   0.68718   Biso      1.000     Mn          0.979975  
         Mn8       1.0000    0.10688   0.73916   0.31282   Biso      1.000     Mn          0.979978  
         Mn9       1.0000    0.39312   0.23916   0.81282   Biso      1.000     Mn          0.979948  
         Mn10      1.0000    0.00000   0.50000   0.00000   Biso      1.000     Mn          1.003156  
         Mn11      1.0000    0.50000   0.00000   0.50000   Biso      1.000     Mn          1.003137  
         Mn12      1.0000    0.58069   0.25679   0.63165   Biso      1.000     Mn          0.993907  
         O1        1.0000    0.06690   0.18824   0.63219   Biso      1.000     O          -0.505031           
         O2        1.0000    0.90164   0.15587   0.04434   Biso      1.000     O          -0.504844           
         O3        1.0000    0.99249   0.37232   0.78371   Biso      1.000     O          -0.561881           
         O4        1.0000    0.99790   0.53803   0.86012   Biso      1.000     O          -0.499815           
         O5        1.0000    0.25789   0.34481   0.89288   Biso      1.000     O          -0.554628           
         O6        1.0000    0.20998   0.47984   0.99669   Biso      1.000     O          -0.503045           
         O7        1.0000    0.91934   0.15100   0.80396   Biso      1.000     O          -0.557426           
         O8        1.0000    0.88110   0.99543   0.88140   Biso      1.000     O          -0.501885           
         O9        1.0000    0.97110   0.31334   0.97924   Biso      1.000     O          -0.557706           
         O10       1.0000    0.15758   0.09708   0.93564   Biso      1.000     O          -0.536587           
         O11       1.0000    0.49790   0.96197   0.63988   Biso      1.000     O          -0.49982  
         O12       1.0000    0.70066   0.30393   0.74918   Biso      1.000     O          -0.55694  
         O13       1.0000    0.56690   0.31176   0.86781   Biso      1.000     O          -0.505027           
         O14       1.0000    0.49249   0.12768   0.71629   Biso      1.000     O          -0.561891           
         O15       1.0000    0.20066   0.19607   0.75082   Biso      1.000     O          -0.556937           
         O16       1.0000    0.75789   0.15519   0.60712   Biso      1.000     O          -0.554638           
         O17       1.0000    0.70998   0.02016   0.50331   Biso      1.000     O          -0.503046           
         O18       1.0000    0.41934   0.34900   0.69604   Biso      1.000     O          -0.557424           
         O19       1.0000    0.38110   0.50457   0.61860   Biso      1.000     O          -0.5019   
         O20       1.0000    0.47110   0.18666   0.52076   Biso      1.000     O          -0.55771  
         O21       1.0000    0.40164   0.34413   0.45566   Biso      1.000     O          -0.504868           
         O22       1.0000    0.37107   0.10486   0.90281   Biso      1.000     O          -0.499076           
         O23       1.0000    0.12893   0.60486   0.40281   Biso      1.000     O          -0.499088           
         O24       1.0000    0.58066   0.65100   0.30396   Biso      1.000     O          -0.557425           
         O25       1.0000    0.59836   0.65587   0.54434   Biso      1.000     O          -0.504867           
         O26       1.0000    0.65758   0.40292   0.56436   Biso      1.000     O          -0.536591           
         O27       1.0000    0.79934   0.80393   0.24918   Biso      1.000     O          -0.556938           
         O28       1.0000    0.93310   0.81176   0.36781   Biso      1.000     O          -0.505026           
         O29       1.0000    0.00751   0.62768   0.21629   Biso      1.000     O          -0.561882           
         O30       1.0000    0.00210   0.46197   0.13988   Biso      1.000     O          -0.499813           
         O31       1.0000    0.74211   0.65519   0.10712   Biso      1.000     O          -0.55463  
         O32       1.0000    0.79002   0.52016   0.00331   Biso      1.000     O          -0.50304  
         O33       1.0000    0.08066   0.84900   0.19604   Biso      1.000     O          -0.557427           
         O34       1.0000    0.11890   0.00457   0.11860   Biso      1.000     O          -0.501882           
         O35       1.0000    0.02890   0.68666   0.02076   Biso      1.000     O          -0.557708           
         O36       1.0000    0.09836   0.84413   0.95566   Biso      1.000     O          -0.504842           
         O37       1.0000    0.84242   0.90292   0.06436   Biso      1.000     O          -0.536585           
         O38       1.0000    0.62893   0.89514   0.09719   Biso      1.000     O          -0.499076           
         O39       1.0000    0.29934   0.69607   0.25082   Biso      1.000     O          -0.556938           
         O40       1.0000    0.43310   0.68824   0.13219   Biso      1.000     O          -0.505025           
         O41       1.0000    0.50751   0.87232   0.28371   Biso      1.000     O          -0.561892           
         O42       1.0000    0.50210   0.03803   0.36012   Biso      1.000     O          -0.499815           
         O43       1.0000    0.24211   0.84481   0.39288   Biso      1.000     O          -0.554639           
         O44       1.0000    0.29002   0.97984   0.49669   Biso      1.000     O          -0.503042           
         O45       1.0000    0.61890   0.49543   0.38140   Biso      1.000     O          -0.501895           
         O46       1.0000    0.52890   0.81334   0.47924   Biso      1.000     O          -0.55771  
         O47       1.0000    0.34242   0.59708   0.43564   Biso      1.000     O          -0.536591           
         O48       1.0000    0.87107   0.39514   0.59719   Biso      1.000     O          -0.499087 