
##########################################################################
#               Crystallographic Information Format file
#               Produced by PyCifRW module
#
#  This is a CIF file.  CIF has been adopted by the International
#  Union of Crystallography as the standard for data archiving and
#  transmission.
#
#  For information on this file format, follow the CIF links at
#  http://www.iucr.org
##########################################################################

data_image0

_cell_length_a                          15.661
_cell_length_b                          15.661
_cell_length_c                          15.661
_cell_angle_alpha                       90
_cell_angle_beta                        90
_cell_angle_gamma                       90
_symmetry_space_group_name_H-M          'P 1'
_symmetry_int_tables_number             1
loop_
  _symmetry_equiv_pos_as_xyz
         'x, y, z' 
loop_
  _atom_site_label
  _atom_site_occupancy
  _atom_site_fract_x
  _atom_site_fract_y
  _atom_site_fract_z
  _atom_site_thermal_displace_type
  _atom_site_B_iso_or_equiv
  _atom_site_type_symbol
  _atom_site_charge
         C1        1.0000    0.73170   0.37630   0.17670   Biso      1.000     C          0.025033  
         C2        1.0000    0.17670   0.73170   0.37630   Biso      1.000     C          0.024047  
         C3        1.0000    0.73170   0.62370   0.82330   Biso      1.000     C          0.023056999999999998          
         C4        1.0000    0.26830   0.62370   0.17670   Biso      1.000     C          0.021543  
         C5        1.0000    0.26830   0.37630   0.82330   Biso      1.000     C          0.023407  
         C6        1.0000    0.41873   0.58127   0.41873   Biso      1.000     C          -0.187863           
         C7        1.0000    0.62370   0.82330   0.73170   Biso      1.000     C          0.021526  
         C8        1.0000    0.62370   0.17670   0.26830   Biso      1.000     C          0.023122999999999998          
         C9        1.0000    0.37630   0.82330   0.26830   Biso      1.000     C          0.022933000000000002          
         C10       1.0000    0.37630   0.17670   0.73170   Biso      1.000     C          0.024429  
         C11       1.0000    0.08127   0.08127   0.08127   Biso      1.000     C          -0.190485           
         C12       1.0000    0.12520   0.12520   0.12520   Biso      1.000     C          -0.170952           
         C13       1.0000    0.91873   0.91873   0.08127   Biso      1.000     C          -0.18545999999999999          
         C14       1.0000    0.87480   0.87480   0.12520   Biso      1.000     C          -0.16431600000000002          
         C15       1.0000    0.91873   0.08127   0.91873   Biso      1.000     C          -0.191296           
         C16       1.0000    0.87480   0.12520   0.87480   Biso      1.000     C          -0.169182           
         C17       1.0000    0.08127   0.91873   0.91873   Biso      1.000     C          -0.189446           
         C18       1.0000    0.12520   0.87480   0.87480   Biso      1.000     C          -0.164662           
         C19       1.0000    0.58127   0.58127   0.58127   Biso      1.000     C          -0.191664           
         C20       1.0000    0.62520   0.62520   0.62520   Biso      1.000     C          -0.172047           
         C21       1.0000    0.41873   0.41873   0.58127   Biso      1.000     C          -0.192307           
         C22       1.0000    0.37480   0.37480   0.62520   Biso      1.000     C          -0.166641           
         C23       1.0000    0.58127   0.41873   0.41873   Biso      1.000     C          -0.187083           
         C24       1.0000    0.62520   0.37480   0.37480   Biso      1.000     C          -0.166139           
         C25       1.0000    0.82330   0.26830   0.37630   Biso      1.000     C          0.021695  
         C26       1.0000    0.17670   0.26830   0.62370   Biso      1.000     C          0.022040999999999998          
         C27       1.0000    0.37480   0.62520   0.37480   Biso      1.000     C          -0.167827           
         C28       1.0000    0.82330   0.73170   0.62370   Biso      1.000     C          0.023568000000000002          
         C29       1.0000    0.23170   0.32330   0.12370   Biso      1.000     C          0.021653  
         C30       1.0000    0.87630   0.23170   0.67670   Biso      1.000     C          0.024118  
         C31       1.0000    0.67670   0.87630   0.23170   Biso      1.000     C          0.024697  
         C32       1.0000    0.76830   0.67670   0.12370   Biso      1.000     C          0.023744  
         C33       1.0000    0.76830   0.32330   0.87630   Biso      1.000     C          0.023157  
         C34       1.0000    0.32330   0.87630   0.76830   Biso      1.000     C          0.024043000000000002          
         C35       1.0000    0.87630   0.76830   0.32330   Biso      1.000     C          0.021391  
         C36       1.0000    0.23170   0.67670   0.87630   Biso      1.000     C          0.023979  
         C37       1.0000    0.67670   0.12370   0.76830   Biso      1.000     C          0.021856  
         C38       1.0000    0.12370   0.23170   0.32330   Biso      1.000     C          0.023718  
         C39       1.0000    0.32330   0.12370   0.23170   Biso      1.000     C          0.023116  
         C40       1.0000    0.12370   0.76830   0.67670   Biso      1.000     C          0.02194   
         Cd1       1.0000    0.50000   0.50000   0.50000   Biso      1.000     Cd          0.639846  
         Cd2       1.0000    0.20754   0.20754   0.20754   Biso      1.000     Cd          0.44373599999999996           
         Cd3       1.0000    0.79246   0.79246   0.20754   Biso      1.000     Cd          0.43629300000000004           
         Cd4       1.0000    0.20754   0.79246   0.79246   Biso      1.000     Cd          0.43668100000000004           
         Cd5       1.0000    0.00000   0.00000   0.00000   Biso      1.000     Cd          0.636537  
         Cd6       1.0000    0.70754   0.70754   0.70754   Biso      1.000     Cd          0.44513400000000003           
         Cd7       1.0000    0.29246   0.29246   0.70754   Biso      1.000     Cd          0.437583  
         Cd8       1.0000    0.70754   0.29246   0.29246   Biso      1.000     Cd          0.43758500000000006           
         Cd9       1.0000    0.29246   0.70754   0.29246   Biso      1.000     Cd          0.441359  
         Cd10      1.0000    0.79246   0.20754   0.79246   Biso      1.000     Cd          0.44179700000000005           
         Cd11      1.0000    0.50000   0.00000   0.25000   Biso      1.000     Cd          1.030269  
         Cd12      1.0000    0.50000   0.00000   0.75000   Biso      1.000     Cd          1.030109  
         Cd13      1.0000    0.00000   0.25000   0.50000   Biso      1.000     Cd          1.030227  
         Cd14      1.0000    0.75000   0.50000   0.00000   Biso      1.000     Cd          1.0305819999999999  
         Cd15      1.0000    0.25000   0.50000   0.00000   Biso      1.000     Cd          1.029901  
         Cd16      1.0000    0.00000   0.75000   0.50000   Biso      1.000     Cd          1.0302229999999999  
         N1        1.0000    0.87840   0.25990   0.41560   Biso      1.000     N          -0.36193600000000004          
         N2        1.0000    0.87840   0.74010   0.58440   Biso      1.000     N          -0.360591           
         N3        1.0000    0.75990   0.62160   0.08440   Biso      1.000     N          -0.361887           
         N4        1.0000    0.12160   0.74010   0.41560   Biso      1.000     N          -0.360648           
         N5        1.0000    0.74010   0.58440   0.87840   Biso      1.000     N          -0.36111  
         N6        1.0000    0.75990   0.37840   0.91560   Biso      1.000     N          -0.36146300000000003          
         N7        1.0000    0.62160   0.91560   0.24010   Biso      1.000     N          -0.361101           
         N8        1.0000    0.25990   0.58440   0.12160   Biso      1.000     N          -0.36170399999999997          
         N9        1.0000    0.24010   0.62160   0.91560   Biso      1.000     N          -0.36142199999999997          
         N10       1.0000    0.25990   0.41560   0.87840   Biso      1.000     N          -0.361721           
         N11       1.0000    0.37840   0.91560   0.75990   Biso      1.000     N          -0.361573           
         N12       1.0000    0.74010   0.41560   0.12160   Biso      1.000     N          -0.360968           
         N13       1.0000    0.58440   0.87840   0.74010   Biso      1.000     N          -0.36128699999999997          
         N14       1.0000    0.08440   0.75990   0.62160   Biso      1.000     N          -0.36234299999999997          
         N15       1.0000    0.62160   0.08440   0.75990   Biso      1.000     N          -0.361661           
         N16       1.0000    0.58440   0.12160   0.25990   Biso      1.000     N          -0.36185  
         N17       1.0000    0.91560   0.75990   0.37840   Biso      1.000     N          -0.362011           
         N18       1.0000    0.41560   0.87840   0.25990   Biso      1.000     N          -0.361304           
         N19       1.0000    0.37840   0.08440   0.24010   Biso      1.000     N          -0.361116           
         N20       1.0000    0.91560   0.24010   0.62160   Biso      1.000     N          -0.360869           
         N21       1.0000    0.41560   0.12160   0.74010   Biso      1.000     N          -0.361492           
         N22       1.0000    0.12160   0.25990   0.58440   Biso      1.000     N          -0.362265           
         N23       1.0000    0.08440   0.24010   0.37840   Biso      1.000     N          -0.360668           
         N24       1.0000    0.24010   0.37840   0.08440   Biso      1.000     N          -0.36131599999999997 