
##########################################################################
#               Crystallographic Information Format file
#               Produced by PyCifRW module
#
#  This is a CIF file.  CIF has been adopted by the International
#  Union of Crystallography as the standard for data archiving and
#  transmission.
#
#  For information on this file format, follow the CIF links at
#  http://www.iucr.org
##########################################################################

data_image0

_cell_length_a                          15.762
_cell_length_b                          15.762
_cell_length_c                          15.762
_cell_angle_alpha                       90
_cell_angle_beta                        90
_cell_angle_gamma                       90
_symmetry_space_group_name_H-M          'P 1'
_symmetry_int_tables_number             1
loop_
  _symmetry_equiv_pos_as_xyz
         'x, y, z' 
loop_
  _atom_site_label
  _atom_site_occupancy
  _atom_site_fract_x
  _atom_site_fract_y
  _atom_site_fract_z
  _atom_site_thermal_displace_type
  _atom_site_B_iso_or_equiv
  _atom_site_type_symbol
  _atom_site_charge
         C1        1.0000    0.73010   0.37620   0.18100   Biso      1.000     C          0.020085  
         C2        1.0000    0.18100   0.73010   0.37620   Biso      1.000     C          0.019669  
         C3        1.0000    0.73010   0.62380   0.81900   Biso      1.000     C          0.019515  
         C4        1.0000    0.26990   0.62380   0.18100   Biso      1.000     C          0.019807  
         C5        1.0000    0.26990   0.37620   0.81900   Biso      1.000     C          0.02132   
         C6        1.0000    0.41750   0.58250   0.41750   Biso      1.000     C          -0.193617           
         C7        1.0000    0.62380   0.81900   0.73010   Biso      1.000     C          0.02087   
         C8        1.0000    0.62380   0.18100   0.26990   Biso      1.000     C          0.022172  
         C9        1.0000    0.37620   0.81900   0.26990   Biso      1.000     C          0.021357  
         C10       1.0000    0.37620   0.18100   0.73010   Biso      1.000     C          0.021026  
         C11       1.0000    0.08250   0.08250   0.08250   Biso      1.000     C          -0.192091           
         C12       1.0000    0.12380   0.12380   0.12380   Biso      1.000     C          -0.183023           
         C13       1.0000    0.91750   0.91750   0.08250   Biso      1.000     C          -0.191419           
         C14       1.0000    0.87620   0.87620   0.12380   Biso      1.000     C          -0.182853           
         C15       1.0000    0.91750   0.08250   0.91750   Biso      1.000     C          -0.19197  
         C16       1.0000    0.87620   0.12380   0.87620   Biso      1.000     C          -0.185171           
         C17       1.0000    0.08250   0.91750   0.91750   Biso      1.000     C          -0.192372           
         C18       1.0000    0.12380   0.87620   0.87620   Biso      1.000     C          -0.186426           
         C19       1.0000    0.58250   0.58250   0.58250   Biso      1.000     C          -0.193671           
         C20       1.0000    0.62380   0.62380   0.62380   Biso      1.000     C          -0.185791           
         C21       1.0000    0.41750   0.41750   0.58250   Biso      1.000     C          -0.193379           
         C22       1.0000    0.37620   0.37620   0.62380   Biso      1.000     C          -0.185572           
         C23       1.0000    0.58250   0.41750   0.41750   Biso      1.000     C          -0.189251           
         C24       1.0000    0.62380   0.37620   0.37620   Biso      1.000     C          -0.181873           
         C25       1.0000    0.81900   0.26990   0.37620   Biso      1.000     C          0.019745  
         C26       1.0000    0.18100   0.26990   0.62380   Biso      1.000     C          0.019448  
         C27       1.0000    0.37620   0.62380   0.37620   Biso      1.000     C          -0.188137           
         C28       1.0000    0.81900   0.73010   0.62380   Biso      1.000     C          0.021576  
         C29       1.0000    0.23010   0.31900   0.12380   Biso      1.000     C          0.021427  
         C30       1.0000    0.87620   0.23010   0.68100   Biso      1.000     C          0.01953   
         C31       1.0000    0.68100   0.87620   0.23010   Biso      1.000     C          0.019535  
         C32       1.0000    0.76990   0.68100   0.12380   Biso      1.000     C          0.020984  
         C33       1.0000    0.76990   0.31900   0.87620   Biso      1.000     C          0.01966   
         C34       1.0000    0.31900   0.87620   0.76990   Biso      1.000     C          0.021958  
         C35       1.0000    0.87620   0.76990   0.31900   Biso      1.000     C          0.021596  
         C36       1.0000    0.23010   0.68100   0.87620   Biso      1.000     C          0.019409  
         C37       1.0000    0.68100   0.12380   0.76990   Biso      1.000     C          0.022056  
         C38       1.0000    0.12380   0.23010   0.31900   Biso      1.000     C          0.021022  
         C39       1.0000    0.31900   0.12380   0.23010   Biso      1.000     C          0.019621  
         C40       1.0000    0.12380   0.76990   0.68100   Biso      1.000     C          0.019992  
         Cd1       1.0000    0.50000   0.50000   0.50000   Biso      1.000     Cd          0.657185  
         Cd2       1.0000    0.20687   0.20687   0.20687   Biso      1.000     Cd          0.467006  
         Cd3       1.0000    0.79313   0.79313   0.20687   Biso      1.000     Cd          0.466953  
         Cd4       1.0000    0.20687   0.79313   0.79313   Biso      1.000     Cd          0.471069  
         Cd5       1.0000    0.00000   0.00000   0.00000   Biso      1.000     Cd          0.655309  
         Cd6       1.0000    0.70687   0.70687   0.70687   Biso      1.000     Cd          0.468912  
         Cd7       1.0000    0.29313   0.29313   0.70687   Biso      1.000     Cd          0.468936  
         Cd8       1.0000    0.70687   0.29313   0.29313   Biso      1.000     Cd          0.466767  
         Cd9       1.0000    0.29313   0.70687   0.29313   Biso      1.000     Cd          0.472567  
         Cd10      1.0000    0.79313   0.20687   0.79313   Biso      1.000     Cd          0.470584  
         Cd11      1.0000    0.50000   0.00000   0.25000   Biso      1.000     Cd          1.052191  
         Cd12      1.0000    0.50000   0.00000   0.75000   Biso      1.000     Cd          1.052544  
         Cd13      1.0000    0.00000   0.25000   0.50000   Biso      1.000     Cd          1.051782  
         Cd14      1.0000    0.75000   0.50000   0.00000   Biso      1.000     Cd          1.052052  
         Cd15      1.0000    0.25000   0.50000   0.00000   Biso      1.000     Cd          1.052252  
         Cd16      1.0000    0.00000   0.75000   0.50000   Biso      1.000     Cd          1.052245  
         N1        1.0000    0.87580   0.26150   0.41740   Biso      1.000     N          -0.369446           
         N2        1.0000    0.87580   0.73850   0.58260   Biso      1.000     N          -0.368668           
         N3        1.0000    0.76150   0.62420   0.08260   Biso      1.000     N          -0.36873  
         N4        1.0000    0.12420   0.73850   0.41740   Biso      1.000     N          -0.369154           
         N5        1.0000    0.73850   0.58260   0.87580   Biso      1.000     N          -0.369165           
         N6        1.0000    0.76150   0.37580   0.91740   Biso      1.000     N          -0.368818           
         N7        1.0000    0.62420   0.91740   0.23850   Biso      1.000     N          -0.369642           
         N8        1.0000    0.26150   0.58260   0.12420   Biso      1.000     N          -0.368854           
         N9        1.0000    0.23850   0.62420   0.91740   Biso      1.000     N          -0.369014           
         N10       1.0000    0.26150   0.41740   0.87580   Biso      1.000     N          -0.368748           
         N11       1.0000    0.37580   0.91740   0.76150   Biso      1.000     N          -0.368375           
         N12       1.0000    0.73850   0.41740   0.12420   Biso      1.000     N          -0.369281           
         N13       1.0000    0.58260   0.87580   0.73850   Biso      1.000     N          -0.369375           
         N14       1.0000    0.08260   0.76150   0.62420   Biso      1.000     N          -0.36882  
         N15       1.0000    0.62420   0.08260   0.76150   Biso      1.000     N          -0.368595           
         N16       1.0000    0.58260   0.12420   0.26150   Biso      1.000     N          -0.368685           
         N17       1.0000    0.91740   0.76150   0.37580   Biso      1.000     N          -0.368988           
         N18       1.0000    0.41740   0.87580   0.26150   Biso      1.000     N          -0.36821  
         N19       1.0000    0.37580   0.08260   0.23850   Biso      1.000     N          -0.369669           
         N20       1.0000    0.91740   0.23850   0.62420   Biso      1.000     N          -0.368866           
         N21       1.0000    0.41740   0.12420   0.73850   Biso      1.000     N          -0.369276           
         N22       1.0000    0.12420   0.26150   0.58260   Biso      1.000     N          -0.369119           
         N23       1.0000    0.08260   0.23850   0.37580   Biso      1.000     N          -0.368714           
         N24       1.0000    0.23850   0.37580   0.08260   Biso      1.000     N          -0.368903 