
##########################################################################
#               Crystallographic Information Format file
#               Produced by PyCifRW module
#
#  This is a CIF file.  CIF has been adopted by the International
#  Union of Crystallography as the standard for data archiving and
#  transmission.
#
#  For information on this file format, follow the CIF links at
#  http://www.iucr.org
##########################################################################

data_image0

_cell_length_a                          14.044
_cell_length_b                          18.034
_cell_length_c                          12.931
_cell_angle_alpha                       90
_cell_angle_beta                        111.47
_cell_angle_gamma                       90
_symmetry_space_group_name_H-M          'P 1'
_symmetry_int_tables_number             1
loop_
  _symmetry_equiv_pos_as_xyz
         'x, y, z' 
loop_
  _atom_site_label
  _atom_site_occupancy
  _atom_site_fract_x
  _atom_site_fract_y
  _atom_site_fract_z
  _atom_site_thermal_displace_type
  _atom_site_B_iso_or_equiv
  _atom_site_type_symbol
  _atom_site_charge
         C1        1.0000    0.52630   0.27430   0.95120   Biso      1.000     C          0.00145   
         C2        1.0000    0.51210   0.34470   0.21290   Biso      1.000     C          -0.18784800000000001          
         C3        1.0000    0.48480   0.52990   0.98460   Biso      1.000     C          -0.161107           
         C4        1.0000    0.47370   0.72570   0.04880   Biso      1.000     C          0.001208  
         C5        1.0000    0.24130   0.86810   0.15530   Biso      1.000     C          0.030891000000000002          
         C6        1.0000    0.25870   0.63190   0.84470   Biso      1.000     C          0.030523  
         C7        1.0000    0.02630   0.77430   0.95120   Biso      1.000     C          0.001626  
         C8        1.0000    0.51520   0.47010   0.01540   Biso      1.000     C          -0.161719           
         C9        1.0000    0.01520   0.97010   0.01540   Biso      1.000     C          -0.162679           
         C10       1.0000    0.01210   0.15530   0.71290   Biso      1.000     C          -0.189669           
         C11       1.0000    0.74130   0.63190   0.65530   Biso      1.000     C          0.030337  
         C12       1.0000    0.01520   0.02990   0.51540   Biso      1.000     C          -0.162666           
         C13       1.0000    0.52630   0.72570   0.45120   Biso      1.000     C          0.001436  
         C14       1.0000    0.51520   0.52990   0.51540   Biso      1.000     C          -0.16182  
         C15       1.0000    0.51210   0.65530   0.71290   Biso      1.000     C          -0.187826           
         C16       1.0000    0.01210   0.84470   0.21290   Biso      1.000     C          -0.18975699999999998          
         C17       1.0000    0.02630   0.22570   0.45120   Biso      1.000     C          0.001611  
         C18       1.0000    0.24130   0.13190   0.65530   Biso      1.000     C          0.030858999999999998          
         C19       1.0000    0.74130   0.36810   0.15530   Biso      1.000     C          0.030385000000000002          
         C20       1.0000    0.25870   0.36810   0.34470   Biso      1.000     C          0.030539  
         C21       1.0000    0.47370   0.27430   0.54880   Biso      1.000     C          0.001172  
         C22       1.0000    0.48480   0.47010   0.48460   Biso      1.000     C          -0.16098800000000002          
         C23       1.0000    0.48790   0.34470   0.28710   Biso      1.000     C          -0.188961           
         C24       1.0000    0.48790   0.65530   0.78710   Biso      1.000     C          -0.188993           
         C25       1.0000    0.98480   0.02990   0.98460   Biso      1.000     C          -0.162267           
         C26       1.0000    0.98790   0.15530   0.78710   Biso      1.000     C          -0.189939           
         C27       1.0000    0.97370   0.22570   0.04880   Biso      1.000     C          0.001568  
         C28       1.0000    0.97370   0.77430   0.54880   Biso      1.000     C          0.001537  
         C29       1.0000    0.98480   0.97010   0.48460   Biso      1.000     C          -0.162278           
         C30       1.0000    0.98790   0.84470   0.28710   Biso      1.000     C          -0.189823           
         C31       1.0000    0.75870   0.13190   0.84470   Biso      1.000     C          0.030930000000000003          
         C32       1.0000    0.75870   0.86810   0.34470   Biso      1.000     C          0.030938  
         Cd1       1.0000    0.42565   0.63992   0.92064   Biso      1.000     Cd          0.5246310000000001  
         Cd2       1.0000    0.00000   0.35448   0.25000   Biso      1.000     Cd          1.0078    
         Cd3       1.0000    0.92565   0.13992   0.92064   Biso      1.000     Cd          0.523451  
         Cd4       1.0000    0.50000   0.85448   0.25000   Biso      1.000     Cd          1.007698  
         Cd5       1.0000    0.42565   0.36008   0.42064   Biso      1.000     Cd          0.5245310000000001  
         Cd6       1.0000    0.50000   0.14552   0.75000   Biso      1.000     Cd          1.007679  
         Cd7       1.0000    0.07435   0.13992   0.57936   Biso      1.000     Cd          0.52351   
         Cd8       1.0000    0.00000   0.64552   0.75000   Biso      1.000     Cd          1.007772  
         Cd9       1.0000    0.57435   0.63992   0.57936   Biso      1.000     Cd          0.524591  
         Cd10      1.0000    0.92565   0.86008   0.42064   Biso      1.000     Cd          0.523451  
         Cd11      1.0000    0.07435   0.86008   0.07936   Biso      1.000     Cd          0.523514  
         Cd12      1.0000    0.57435   0.36008   0.07936   Biso      1.000     Cd          0.5246390000000001  
         N1        1.0000    0.49140   0.23100   0.61540   Biso      1.000     N          -0.35024299999999997          
         N2        1.0000    0.17210   0.36880   0.31090   Biso      1.000     N          -0.357811           
         N3        1.0000    0.00860   0.26900   0.38460   Biso      1.000     N          -0.351258           
         N4        1.0000    0.67210   0.86880   0.31090   Biso      1.000     N          -0.358799           
         N5        1.0000    0.50860   0.76900   0.38460   Biso      1.000     N          -0.34994400000000003          
         N6        1.0000    0.50860   0.23100   0.88460   Biso      1.000     N          -0.349961           
         N7        1.0000    0.99140   0.26900   0.11540   Biso      1.000     N          -0.35131599999999996          
         N8        1.0000    0.82790   0.36880   0.18910   Biso      1.000     N          -0.357808           
         N9        1.0000    0.32790   0.13120   0.68910   Biso      1.000     N          -0.358795           
         N10       1.0000    0.32790   0.86880   0.18910   Biso      1.000     N          -0.35878499999999997          
         N11       1.0000    0.00860   0.73100   0.88460   Biso      1.000     N          -0.35127600000000003          
         N12       1.0000    0.49140   0.76900   0.11540   Biso      1.000     N          -0.350256           
         N13       1.0000    0.17210   0.63120   0.81090   Biso      1.000     N          -0.35779  
         N14       1.0000    0.99140   0.73100   0.61540   Biso      1.000     N          -0.351285           
         N15       1.0000    0.67210   0.13120   0.81090   Biso      1.000     N          -0.358796           
         N16       1.0000    0.82790   0.63120   0.68910   Biso      1.000     N          -0.357817 