
##########################################################################
#               Crystallographic Information Format file
#               Produced by PyCifRW module
#
#  This is a CIF file.  CIF has been adopted by the International
#  Union of Crystallography as the standard for data archiving and
#  transmission.
#
#  For information on this file format, follow the CIF links at
#  http://www.iucr.org
##########################################################################

data_image0

_cell_length_a                          7.9974
_cell_length_b                          10.3744
_cell_length_c                          12.6106
_cell_angle_alpha                       90.316
_cell_angle_beta                        90.311
_cell_angle_gamma                       107.047
_symmetry_space_group_name_H-M          'P 1'
_symmetry_int_tables_number             1
loop_
  _symmetry_equiv_pos_as_xyz
         'x, y, z' 
loop_
  _atom_site_label
  _atom_site_occupancy
  _atom_site_fract_x
  _atom_site_fract_y
  _atom_site_fract_z
  _atom_site_thermal_displace_type
  _atom_site_B_iso_or_equiv
  _atom_site_type_symbol
  _atom_site_charge
         C1        1.0000    0.45130   0.17090   0.38720   Biso      1.000     C          -0.161293           
         C2        1.0000    0.35830   0.10190   0.47350   Biso      1.000     C          -0.000565           
         C3        1.0000    0.49470   0.63290   0.80210   Biso      1.000     C          -0.148319           
         C4        1.0000    0.69730   0.27280   0.05460   Biso      1.000     C          -0.101434           
         C5        1.0000    0.61100   0.45470   0.12700   Biso      1.000     C          -0.017928           
         C6        1.0000    0.54870   0.82910   0.61280   Biso      1.000     C          -0.161294           
         C7        1.0000    0.38830   0.14820   0.28490   Biso      1.000     C          0.065562  
         C8        1.0000    0.79730   0.99430   0.54390   Biso      1.000     C          -0.097698           
         C9        1.0000    0.50960   0.76950   0.80090   Biso      1.000     C          0.085855  
         C10       1.0000    0.86490   0.02030   0.64380   Biso      1.000     C          -0.09576  
         C11       1.0000    0.57950   0.86130   0.41450   Biso      1.000     C          0.585087  
         C12       1.0000    0.60030   0.03860   0.12320   Biso      1.000     C          0.64038   
         C13       1.0000    0.64170   0.89810   0.52650   Biso      1.000     C          -0.000556           
         C14       1.0000    0.85920   0.97490   0.83770   Biso      1.000     C          0.636295  
         C15       1.0000    0.39970   0.96140   0.87680   Biso      1.000     C          0.64038   
         C16       1.0000    0.37920   0.39820   0.86660   Biso      1.000     C          0.629843  
         C17       1.0000    0.38900   0.54530   0.87300   Biso      1.000     C          -0.017926           
         C18       1.0000    0.49040   0.23050   0.19910   Biso      1.000     C          0.085855  
         C19       1.0000    0.77610   0.95060   0.73140   Biso      1.000     C          -0.07303  
         C20       1.0000    0.20270   0.00570   0.45610   Biso      1.000     C          -0.097688           
         C21       1.0000    0.62080   0.60180   0.13340   Biso      1.000     C          0.629843  
         C22       1.0000    0.42050   0.13870   0.58550   Biso      1.000     C          0.585088  
         C23       1.0000    0.59490   0.18390   0.12650   Biso      1.000     C          -0.070614           
         C24       1.0000    0.30270   0.72720   0.94540   Biso      1.000     C          -0.101434           
         C25       1.0000    0.50530   0.36710   0.19790   Biso      1.000     C          -0.148317           
         C26       1.0000    0.70850   0.40720   0.05410   Biso      1.000     C          -0.107378           
         C27       1.0000    0.22390   0.04940   0.26860   Biso      1.000     C          -0.07303  
         C28       1.0000    0.61170   0.85180   0.71510   Biso      1.000     C          0.065563  
         C29       1.0000    0.29150   0.59280   0.94590   Biso      1.000     C          -0.107378           
         C30       1.0000    0.14080   0.02510   0.16230   Biso      1.000     C          0.636295  
         C31       1.0000    0.13510   0.97970   0.35620   Biso      1.000     C          -0.095761           
         C32       1.0000    0.40510   0.81610   0.87350   Biso      1.000     C          -0.070614           
         H1        1.0000    0.97180   0.08550   0.65410   Biso      1.000     H          0.123042  
         H2        1.0000    0.85790   0.04250   0.48700   Biso      1.000     H          0.122547  
         H3        1.0000    0.55830   0.59910   0.75340   Biso      1.000     H          0.130633  
         H4        1.0000    0.44070   0.76580   0.60070   Biso      1.000     H          0.131132  
         H5        1.0000    0.77980   0.46530   0.00580   Biso      1.000     H          0.126295  
         H6        1.0000    0.44170   0.40090   0.24660   Biso      1.000     H          0.130633  
         H7        1.0000    0.76070   0.24020   0.00500   Biso      1.000     H          0.121385  
         H8        1.0000    0.55930   0.23420   0.39930   Biso      1.000     H          0.131132  
         H9        1.0000    0.23930   0.75980   0.99500   Biso      1.000     H          0.121385  
         H10       1.0000    0.02820   0.91450   0.34590   Biso      1.000     H          0.123042  
         H11       1.0000    0.14210   0.95750   0.51300   Biso      1.000     H          0.122546  
         H12       1.0000    0.22020   0.53470   0.99420   Biso      1.000     H          0.126295  
         O1        1.0000    0.46250   0.94680   0.14640   Biso      1.000     O          -0.587146           
         O2        1.0000    0.57020   0.21960   0.60030   Biso      1.000     O          -0.56241  
         O3        1.0000    0.25840   0.97720   0.90450   Biso      1.000     O          -0.530371           
         O4        1.0000    0.73250   0.67950   0.07410   Biso      1.000     O          -0.545647           
         O5        1.0000    0.48210   0.36390   0.80680   Biso      1.000     O          -0.571781           
         O6        1.0000    0.74160   0.02280   0.09550   Biso      1.000     O          -0.530371           
         O7        1.0000    0.53750   0.05320   0.85360   Biso      1.000     O          -0.587145           
         O8        1.0000    0.42980   0.78040   0.39970   Biso      1.000     O          -0.562411           
         O9        1.0000    0.66740   0.91180   0.33740   Biso      1.000     O          -0.563092           
         O10       1.0000    0.51790   0.63610   0.19320   Biso      1.000     O          -0.571782           
         O11       1.0000    0.26750   0.32050   0.92590   Biso      1.000     O          -0.545647           
         O12       1.0000    0.95880   0.09230   0.85900   Biso      1.000     O          -0.580608           
         O13       1.0000    0.04120   0.90770   0.14100   Biso      1.000     O          -0.580608           
         O14       1.0000    0.33260   0.08820   0.66260   Biso      1.000     O          -0.563092           
         O15       1.0000    0.16870   0.12080   0.09870   Biso      1.000     O          -0.55555  
         O16       1.0000    0.83130   0.87920   0.90130   Biso      1.000     O          -0.55555  
         Zn1       1.0000    0.82240   0.87149   0.05667   Biso      1.000     Zn          0.972885  
         Zn2       1.0000    0.44365   0.78993   0.23752   Biso      1.000     Zn          0.99967   
         Zn3       1.0000    0.17760   0.12851   0.94333   Biso      1.000     Zn          0.972885  
         Zn4       1.0000    0.55635   0.21007   0.76248   Biso      1.000     Zn          0.99967 