
##########################################################################
#               Crystallographic Information Format file
#               Produced by PyCifRW module
#
#  This is a CIF file.  CIF has been adopted by the International
#  Union of Crystallography as the standard for data archiving and
#  transmission.
#
#  For information on this file format, follow the CIF links at
#  http://www.iucr.org
##########################################################################

data_image0

_cell_length_a                          14.319
_cell_length_b                          14.49
_cell_length_c                          22.598
_cell_angle_alpha                       90
_cell_angle_beta                        98.21
_cell_angle_gamma                       90
_symmetry_space_group_name_H-M          'P 1'
_symmetry_int_tables_number             1
loop_
  _symmetry_equiv_pos_as_xyz
         'x, y, z' 
loop_
  _atom_site_label
  _atom_site_occupancy
  _atom_site_fract_x
  _atom_site_fract_y
  _atom_site_fract_z
  _atom_site_thermal_displace_type
  _atom_site_B_iso_or_equiv
  _atom_site_type_symbol
  _atom_site_charge
         C1        1.0000    0.04160   0.46140   0.17422   Biso      1.000     C          -0.002189           
         C2        1.0000    0.44060   0.45590   0.32830   Biso      1.000     C          -0.010645           
         C3        1.0000    0.01500   0.02370   0.30102   Biso      1.000     C          -0.10371199999999998          
         C4        1.0000    0.96150   0.95970   0.38697   Biso      1.000     C          -0.152382           
         C5        1.0000    0.10540   0.39680   0.21310   Biso      1.000     C          0.622993  
         C6        1.0000    0.92730   0.58350   0.10200   Biso      1.000     C          -0.165156           
         C7        1.0000    0.92730   0.91650   0.60200   Biso      1.000     C          -0.16508399999999998          
         C8        1.0000    0.07270   0.41650   0.89800   Biso      1.000     C          -0.165157           
         C9        1.0000    0.01830   0.47820   0.92350   Biso      1.000     C          0.173015  
         C10       1.0000    0.95840   0.96140   0.32578   Biso      1.000     C          -0.00218  
         C11       1.0000    0.13440   0.34840   0.81030   Biso      1.000     C          0.597248  
         C12       1.0000    0.43590   0.43000   0.66730   Biso      1.000     C          0.012675  
         C13       1.0000    0.96150   0.54030   0.88697   Biso      1.000     C          -0.152358           
         C14       1.0000    0.98170   0.97820   0.57650   Biso      1.000     C          0.17297   
         C15       1.0000    0.55940   0.95590   0.17170   Biso      1.000     C          -0.010648999999999999         
         C16       1.0000    0.55940   0.54410   0.67170   Biso      1.000     C          -0.010643999999999999         
         C17       1.0000    0.63030   0.63000   0.30300   Biso      1.000     C          0.5731069999999999  
         C18       1.0000    0.63030   0.87000   0.80300   Biso      1.000     C          0.573129  
         C19       1.0000    0.10540   0.10320   0.71310   Biso      1.000     C          0.62303   
         C20       1.0000    0.98500   0.52370   0.19898   Biso      1.000     C          -0.103744           
         C21       1.0000    0.03850   0.04030   0.61303   Biso      1.000     C          -0.15237699999999998          
         C22       1.0000    0.62540   0.88930   0.20820   Biso      1.000     C          0.5800390000000001  
         C23       1.0000    0.49290   0.02060   0.07770   Biso      1.000     C          0.180695  
         C24       1.0000    0.92860   0.91460   0.66320   Biso      1.000     C          -0.010054           
         C25       1.0000    0.86560   0.65160   0.18970   Biso      1.000     C          0.597248  
         C26       1.0000    0.43590   0.07000   0.16730   Biso      1.000     C          0.012806  
         C27       1.0000    0.36970   0.37000   0.69700   Biso      1.000     C          0.573108  
         C28       1.0000    0.55720   0.96140   0.11050   Biso      1.000     C          -0.194411           
         C29       1.0000    0.37460   0.11070   0.79180   Biso      1.000     C          0.580038  
         C30       1.0000    0.44280   0.03860   0.88950   Biso      1.000     C          -0.194418           
         C31       1.0000    0.43250   0.42520   0.60570   Biso      1.000     C          -0.164748           
         C32       1.0000    0.56410   0.93000   0.83270   Biso      1.000     C          0.012804  
         C33       1.0000    0.50710   0.52060   0.42230   Biso      1.000     C          0.180722  
         C34       1.0000    0.98500   0.97630   0.69898   Biso      1.000     C          -0.103717           
         C35       1.0000    0.50090   0.98970   0.79970   Biso      1.000     C          -0.10327599999999999          
         C36       1.0000    0.95840   0.53860   0.82578   Biso      1.000     C          -0.002187           
         C37       1.0000    0.04160   0.03860   0.67422   Biso      1.000     C          -0.002183           
         C38       1.0000    0.44280   0.46140   0.38950   Biso      1.000     C          -0.19434500000000002          
         C39       1.0000    0.56750   0.92520   0.89430   Biso      1.000     C          -0.164699           
         C40       1.0000    0.50090   0.51030   0.29970   Biso      1.000     C          -0.10336400000000001          
         C41       1.0000    0.89460   0.89680   0.28690   Biso      1.000     C          0.623031  
         C42       1.0000    0.56410   0.57000   0.33270   Biso      1.000     C          0.012674  
         C43       1.0000    0.07140   0.41460   0.83680   Biso      1.000     C          -0.010159999999999999         
         C44       1.0000    0.07270   0.08350   0.39800   Biso      1.000     C          -0.16508  
         C45       1.0000    0.36970   0.13000   0.19700   Biso      1.000     C          0.573129  
         C46       1.0000    0.03850   0.45970   0.11303   Biso      1.000     C          -0.152362           
         C47       1.0000    0.01500   0.47630   0.80102   Biso      1.000     C          -0.103747           
         C48       1.0000    0.50710   0.97940   0.92230   Biso      1.000     C          0.180701  
         C49       1.0000    0.62540   0.61070   0.70820   Biso      1.000     C          0.5800569999999999  
         C50       1.0000    0.49290   0.47940   0.57770   Biso      1.000     C          0.180732  
         C51       1.0000    0.89460   0.60320   0.78690   Biso      1.000     C          0.623001  
         C52       1.0000    0.56750   0.57480   0.39430   Biso      1.000     C          -0.164748           
         C53       1.0000    0.13440   0.15160   0.31030   Biso      1.000     C          0.5972109999999999  
         C54       1.0000    0.44060   0.04410   0.82830   Biso      1.000     C          -0.010654           
         C55       1.0000    0.43250   0.07480   0.10570   Biso      1.000     C          -0.164697           
         C56       1.0000    0.92860   0.58540   0.16320   Biso      1.000     C          -0.010159999999999999         
         C57       1.0000    0.01830   0.02180   0.42350   Biso      1.000     C          0.172975  
         C58       1.0000    0.49910   0.01030   0.20030   Biso      1.000     C          -0.10327  
         C59       1.0000    0.07140   0.08540   0.33680   Biso      1.000     C          -0.010055           
         C60       1.0000    0.37460   0.38930   0.29180   Biso      1.000     C          0.5800529999999999  
         C61       1.0000    0.98170   0.52180   0.07650   Biso      1.000     C          0.17302   
         C62       1.0000    0.86560   0.84840   0.68970   Biso      1.000     C          0.5972149999999999  
         C63       1.0000    0.55720   0.53860   0.61050   Biso      1.000     C          -0.19434500000000002          
         C64       1.0000    0.49910   0.48970   0.70030   Biso      1.000     C          -0.103367           
         Cd1       1.0000    0.17877   0.13256   0.86001   Biso      1.000     Cd          0.96665   
         Cd2       1.0000    0.17877   0.36744   0.36001   Biso      1.000     Cd          0.965867  
         Cd3       1.0000    0.74414   0.75077   0.75883   Biso      1.000     Cd          0.9893930000000001  
         Cd4       1.0000    0.25586   0.24923   0.24117   Biso      1.000     Cd          0.9893860000000001  
         Cd5       1.0000    0.74414   0.74923   0.25883   Biso      1.000     Cd          0.9893200000000001  
         Cd6       1.0000    0.82123   0.63256   0.63999   Biso      1.000     Cd          0.965936  
         Cd7       1.0000    0.82123   0.86744   0.13999   Biso      1.000     Cd          0.9666600000000001  
         Cd8       1.0000    0.25586   0.25077   0.74117   Biso      1.000     Cd          0.9893219999999999  
         H1        1.0000    0.61010   0.88590   0.91670   Biso      1.000     H          0.134633  
         H2        1.0000    0.07460   0.08330   0.59580   Biso      1.000     H          0.131413  
         H3        1.0000    0.40180   0.42610   0.40860   Biso      1.000     H          0.104984  
         H4        1.0000    0.98480   0.52410   0.24010   Biso      1.000     H          0.12626400000000002           
         H5        1.0000    0.01520   0.02410   0.25990   Biso      1.000     H          0.12628   
         H6        1.0000    0.59820   0.57390   0.59140   Biso      1.000     H          0.104985  
         H7        1.0000    0.98480   0.97590   0.74010   Biso      1.000     H          0.126278  
         H8        1.0000    0.38990   0.38590   0.58330   Biso      1.000     H          0.134624  
         H9        1.0000    0.50120   0.49340   0.74160   Biso      1.000     H          0.13781500000000002           
         H10       1.0000    0.50120   0.00660   0.24160   Biso      1.000     H          0.13784100000000002           
         H11       1.0000    0.11090   0.37550   0.92200   Biso      1.000     H          0.128458  
         H12       1.0000    0.11090   0.12450   0.42200   Biso      1.000     H          0.12850899999999998           
         H13       1.0000    0.92540   0.58330   0.90420   Biso      1.000     H          0.131399  
         H14       1.0000    0.61010   0.61410   0.41670   Biso      1.000     H          0.13463   
         H15       1.0000    0.38990   0.11410   0.08330   Biso      1.000     H          0.134629  
         H16       1.0000    0.92540   0.91670   0.40420   Biso      1.000     H          0.131412  
         H17       1.0000    0.49880   0.99340   0.75840   Biso      1.000     H          0.13783399999999998           
         H18       1.0000    0.59820   0.92610   0.09140   Biso      1.000     H          0.10495299999999999           
         H19       1.0000    0.88910   0.87550   0.57800   Biso      1.000     H          0.12851700000000002           
         H20       1.0000    0.49880   0.50660   0.25840   Biso      1.000     H          0.13781400000000002           
         H21       1.0000    0.88910   0.62450   0.07800   Biso      1.000     H          0.128456  
         H22       1.0000    0.40180   0.07390   0.90860   Biso      1.000     H          0.104949  
         H23       1.0000    0.01520   0.47590   0.75990   Biso      1.000     H          0.126273  
         H24       1.0000    0.07460   0.41670   0.09580   Biso      1.000     H          0.131391  
         N1        1.0000    0.02850   0.02310   0.48777   Biso      1.000     N          -0.097121           
         N2        1.0000    0.51460   0.96710   0.98556   Biso      1.000     N          -0.113434           
         N3        1.0000    0.48540   0.03290   0.01444   Biso      1.000     N          -0.113379           
         N4        1.0000    0.97150   0.97690   0.51223   Biso      1.000     N          -0.097052           
         N5        1.0000    0.97150   0.52310   0.01223   Biso      1.000     N          -0.09745  
         N6        1.0000    0.48540   0.46710   0.51444   Biso      1.000     N          -0.113701           
         N7        1.0000    0.51460   0.53290   0.48556   Biso      1.000     N          -0.113642           
         N8        1.0000    0.02850   0.47690   0.98777   Biso      1.000     N          -0.097376           
         O1        1.0000    0.38000   0.12460   0.73870   Biso      1.000     O          -0.45496899999999996          
         O2        1.0000    0.82230   0.78840   0.65596   Biso      1.000     O          -0.601383           
         O3        1.0000    0.15250   0.15800   0.68746   Biso      1.000     O          -0.50781  
         O4        1.0000    0.31550   0.15520   0.81865   Biso      1.000     O          -0.582987           
         O5        1.0000    0.82230   0.71160   0.15596   Biso      1.000     O          -0.601356           
         O6        1.0000    0.17770   0.21160   0.34404   Biso      1.000     O          -0.601381           
         O7        1.0000    0.62000   0.62460   0.76130   Biso      1.000     O          -0.45514899999999997          
         O8        1.0000    0.62180   0.86780   0.74774   Biso      1.000     O          -0.551093           
         O9        1.0000    0.14250   0.35630   0.75600   Biso      1.000     O          -0.5034029999999999           
         O10       1.0000    0.14250   0.14370   0.25600   Biso      1.000     O          -0.5035470000000001           
         O11       1.0000    0.89730   0.59880   0.73204   Biso      1.000     O          -0.6070949999999999           
         O12       1.0000    0.85750   0.85630   0.74400   Biso      1.000     O          -0.503545           
         O13       1.0000    0.31170   0.32250   0.66444   Biso      1.000     O          -0.532682           
         O14       1.0000    0.37820   0.36780   0.75226   Biso      1.000     O          -0.550812           
         O15       1.0000    0.85750   0.64370   0.24400   Biso      1.000     O          -0.5034069999999999           
         O16       1.0000    0.10270   0.09880   0.76796   Biso      1.000     O          -0.607029           
         O17       1.0000    0.68450   0.65520   0.68135   Biso      1.000     O          -0.583121           
         O18       1.0000    0.15250   0.34200   0.18746   Biso      1.000     O          -0.507945           
         O19       1.0000    0.84750   0.84200   0.31254   Biso      1.000     O          -0.507814           
         O20       1.0000    0.31170   0.17750   0.16444   Biso      1.000     O          -0.533027           
         O21       1.0000    0.68830   0.82250   0.83556   Biso      1.000     O          -0.533031           
         O22       1.0000    0.31550   0.34480   0.31865   Biso      1.000     O          -0.583118           
         O23       1.0000    0.38000   0.37540   0.23870   Biso      1.000     O          -0.45515600000000006          
         O24       1.0000    0.89730   0.90120   0.23204   Biso      1.000     O          -0.607038           
         O25       1.0000    0.62000   0.87540   0.26130   Biso      1.000     O          -0.454977           
         O26       1.0000    0.68830   0.67750   0.33556   Biso      1.000     O          -0.53268  
         O27       1.0000    0.37820   0.13220   0.25226   Biso      1.000     O          -0.551084           
         O28       1.0000    0.84750   0.65800   0.81254   Biso      1.000     O          -0.507943           
         O29       1.0000    0.62180   0.63220   0.24774   Biso      1.000     O          -0.550804           
         O30       1.0000    0.10270   0.40120   0.26796   Biso      1.000     O          -0.607093           
         O31       1.0000    0.68450   0.84480   0.18135   Biso      1.000     O          -0.582997           
         O32       1.0000    0.17770   0.28840   0.84404   Biso      1.000     O          -0.6013470000000001 