
##########################################################################
#               Crystallographic Information Format file
#               Produced by PyCifRW module
#
#  This is a CIF file.  CIF has been adopted by the International
#  Union of Crystallography as the standard for data archiving and
#  transmission.
#
#  For information on this file format, follow the CIF links at
#  http://www.iucr.org
##########################################################################

data_image0

_cell_length_a                          11.5228
_cell_length_b                          11.5228
_cell_length_c                          25.7692
_cell_angle_alpha                       90
_cell_angle_beta                        90
_cell_angle_gamma                       90
_symmetry_space_group_name_H-M          'P 1'
_symmetry_int_tables_number             1
loop_
  _symmetry_equiv_pos_as_xyz
         'x, y, z' 
loop_
  _atom_site_label
  _atom_site_occupancy
  _atom_site_fract_x
  _atom_site_fract_y
  _atom_site_fract_z
  _atom_site_thermal_displace_type
  _atom_site_B_iso_or_equiv
  _atom_site_type_symbol
  _atom_site_charge
         C1        1.0000    0.10770   0.64010   0.67370   Biso      1.000     C          -0.532877           
         C2        1.0000    0.13750   0.56100   0.28278   Biso      1.000     C          0.230956  
         C3        1.0000    0.10770   0.64010   0.32630   Biso      1.000     C          -0.532877           
         C4        1.0000    0.86250   0.43900   0.28278   Biso      1.000     C          0.23095700000000002           
         C5        1.0000    0.89230   0.35990   0.32630   Biso      1.000     C          -0.532877           
         C6        1.0000    0.43900   0.86250   0.71722   Biso      1.000     C          0.23095700000000002           
         C7        1.0000    0.35990   0.89230   0.67370   Biso      1.000     C          -0.532877           
         C8        1.0000    0.56100   0.13750   0.71722   Biso      1.000     C          0.23095700000000002           
         C9        1.0000    0.64010   0.10770   0.67370   Biso      1.000     C          -0.532877           
         C10       1.0000    0.86250   0.56100   0.21722   Biso      1.000     C          0.230956  
         C11       1.0000    0.89230   0.64010   0.17370   Biso      1.000     C          -0.532877           
         C12       1.0000    0.13750   0.43900   0.21722   Biso      1.000     C          0.23095700000000002           
         C13       1.0000    0.35990   0.10770   0.82630   Biso      1.000     C          -0.532877           
         C14       1.0000    0.10770   0.35990   0.17370   Biso      1.000     C          -0.532877           
         C15       1.0000    0.35990   0.10770   0.17370   Biso      1.000     C          -0.532877           
         C16       1.0000    0.56100   0.86250   0.21722   Biso      1.000     C          0.23095700000000002           
         C17       1.0000    0.64010   0.89230   0.17370   Biso      1.000     C          -0.532877           
         C18       1.0000    0.86250   0.43900   0.71722   Biso      1.000     C          0.23095700000000002           
         C19       1.0000    0.89230   0.35990   0.67370   Biso      1.000     C          -0.532877           
         C20       1.0000    0.13750   0.56100   0.71722   Biso      1.000     C          0.230958  
         C21       1.0000    0.56100   0.13750   0.28278   Biso      1.000     C          0.230956  
         C22       1.0000    0.64010   0.10770   0.32630   Biso      1.000     C          -0.532877           
         C23       1.0000    0.43900   0.86250   0.28278   Biso      1.000     C          0.230956  
         C24       1.0000    0.35990   0.89230   0.32630   Biso      1.000     C          -0.532877           
         C25       1.0000    0.10770   0.35990   0.82630   Biso      1.000     C          -0.532878           
         C26       1.0000    0.43900   0.13750   0.21722   Biso      1.000     C          0.23095700000000002           
         C27       1.0000    0.86250   0.56100   0.78278   Biso      1.000     C          0.230956  
         C28       1.0000    0.43900   0.13750   0.78278   Biso      1.000     C          0.230956  
         C29       1.0000    0.56100   0.86250   0.78278   Biso      1.000     C          0.230956  
         C30       1.0000    0.50000   0.50000   0.05400   Biso      1.000     C          -0.020118           
         C31       1.0000    0.50000   0.50000   0.11190   Biso      1.000     C          0.6104470000000001  
         C32       1.0000    0.50000   0.50000   0.55400   Biso      1.000     C          -0.020118           
         C33       1.0000    0.50000   0.50000   0.61190   Biso      1.000     C          0.6104470000000001  
         C34       1.0000    0.50000   0.50000   0.44600   Biso      1.000     C          -0.020122           
         C35       1.0000    0.50000   0.50000   0.38810   Biso      1.000     C          0.6104470000000001  
         C36       1.0000    0.50000   0.50000   0.94600   Biso      1.000     C          -0.020122           
         C37       1.0000    0.50000   0.50000   0.88810   Biso      1.000     C          0.6104470000000001  
         C38       1.0000    0.50000   0.93520   0.75000   Biso      1.000     C          -0.16328  
         C39       1.0000    0.50000   0.06480   0.75000   Biso      1.000     C          -0.16328  
         C40       1.0000    0.93520   0.50000   0.25000   Biso      1.000     C          -0.16328  
         C41       1.0000    0.64010   0.89230   0.82630   Biso      1.000     C          -0.532877           
         C42       1.0000    0.06480   0.50000   0.25000   Biso      1.000     C          -0.16328  
         C43       1.0000    0.50000   0.93520   0.25000   Biso      1.000     C          -0.16328  
         C44       1.0000    0.06480   0.50000   0.75000   Biso      1.000     C          -0.163286           
         C45       1.0000    0.93520   0.50000   0.75000   Biso      1.000     C          -0.163279           
         C46       1.0000    0.42860   0.42860   0.02670   Biso      1.000     C          -0.11204800000000001          
         C47       1.0000    0.57140   0.57140   0.02670   Biso      1.000     C          -0.11204800000000001          
         C48       1.0000    0.57140   0.42860   0.52670   Biso      1.000     C          -0.11204800000000001          
         C49       1.0000    0.42860   0.57140   0.52670   Biso      1.000     C          -0.11204800000000001          
         C50       1.0000    0.57140   0.42860   0.47330   Biso      1.000     C          -0.11202999999999999          
         C51       1.0000    0.42860   0.57140   0.47330   Biso      1.000     C          -0.11202999999999999          
         C52       1.0000    0.42860   0.42860   0.97330   Biso      1.000     C          -0.11202999999999999          
         C53       1.0000    0.57140   0.57140   0.97330   Biso      1.000     C          -0.11202999999999999          
         C54       1.0000    0.50000   0.06480   0.25000   Biso      1.000     C          -0.16328  
         C55       1.0000    0.89230   0.64010   0.82630   Biso      1.000     C          -0.532877           
         C56       1.0000    0.13750   0.43900   0.78278   Biso      1.000     C          0.230962  
         H1        1.0000    0.62110   0.62110   0.95560   Biso      1.000     H          0.114506  
         H2        1.0000    0.17220   0.35490   0.15020   Biso      1.000     H          0.16830699999999998           
         H3        1.0000    0.09050   0.28410   0.18720   Biso      1.000     H          0.169423  
         H4        1.0000    0.38940   0.04120   0.15560   Biso      1.000     H          0.173071  
         H5        1.0000    0.35490   0.17220   0.15020   Biso      1.000     H          0.16830699999999998           
         H6        1.0000    0.28410   0.09050   0.18720   Biso      1.000     H          0.169424  
         H7        1.0000    0.61060   0.95880   0.15560   Biso      1.000     H          0.173071  
         H8        1.0000    0.64510   0.82780   0.15020   Biso      1.000     H          0.16830699999999998           
         H9        1.0000    0.71590   0.90950   0.18720   Biso      1.000     H          0.169423  
         H10       1.0000    0.61060   0.95880   0.84440   Biso      1.000     H          0.173072  
         H11       1.0000    0.82780   0.35490   0.65020   Biso      1.000     H          0.16830699999999998           
         H12       1.0000    0.90950   0.28410   0.68720   Biso      1.000     H          0.169424  
         H13       1.0000    0.04120   0.61060   0.65560   Biso      1.000     H          0.173071  
         H14       1.0000    0.04120   0.38940   0.15560   Biso      1.000     H          0.173071  
         H15       1.0000    0.17220   0.64510   0.65020   Biso      1.000     H          0.16830699999999998           
         H16       1.0000    0.61060   0.04120   0.34440   Biso      1.000     H          0.173071  
         H17       1.0000    0.64510   0.17220   0.34980   Biso      1.000     H          0.16830699999999998           
         H18       1.0000    0.71590   0.09050   0.31280   Biso      1.000     H          0.169424  
         H19       1.0000    0.38940   0.95880   0.34440   Biso      1.000     H          0.173071  
         H20       1.0000    0.35490   0.82780   0.34980   Biso      1.000     H          0.16830699999999998           
         H21       1.0000    0.28410   0.90950   0.31280   Biso      1.000     H          0.169424  
         H22       1.0000    0.04120   0.38940   0.84440   Biso      1.000     H          0.173072  
         H23       1.0000    0.17220   0.35490   0.84980   Biso      1.000     H          0.16830699999999998           
         H24       1.0000    0.09050   0.28410   0.81280   Biso      1.000     H          0.169424  
         H25       1.0000    0.95880   0.61060   0.84440   Biso      1.000     H          0.173071  
         H26       1.0000    0.82780   0.64510   0.84980   Biso      1.000     H          0.16830699999999998           
         H27       1.0000    0.90950   0.71590   0.81280   Biso      1.000     H          0.169424  
         H28       1.0000    0.09050   0.71590   0.68720   Biso      1.000     H          0.169423  
         H29       1.0000    0.90950   0.71590   0.18720   Biso      1.000     H          0.169424  
         H30       1.0000    0.95880   0.38940   0.65560   Biso      1.000     H          0.173071  
         H31       1.0000    0.95880   0.61060   0.15560   Biso      1.000     H          0.173072  
         H32       1.0000    0.37890   0.37890   0.95560   Biso      1.000     H          0.114506  
         H33       1.0000    0.37890   0.62110   0.45560   Biso      1.000     H          0.114506  
         H34       1.0000    0.82780   0.64510   0.15020   Biso      1.000     H          0.16830699999999998           
         H35       1.0000    0.37890   0.62110   0.54440   Biso      1.000     H          0.114507  
         H36       1.0000    0.62110   0.37890   0.54440   Biso      1.000     H          0.114507  
         H37       1.0000    0.62110   0.62110   0.04440   Biso      1.000     H          0.114507  
         H38       1.0000    0.37890   0.37890   0.04440   Biso      1.000     H          0.114507  
         H39       1.0000    0.64510   0.82780   0.84980   Biso      1.000     H          0.16830699999999998           
         H40       1.0000    0.71590   0.90950   0.81280   Biso      1.000     H          0.169424  
         H41       1.0000    0.38940   0.04120   0.84440   Biso      1.000     H          0.173071  
         H42       1.0000    0.35490   0.17220   0.84980   Biso      1.000     H          0.16830699999999998           
         H43       1.0000    0.28410   0.09050   0.81280   Biso      1.000     H          0.169424  
         H44       1.0000    0.62110   0.37890   0.45560   Biso      1.000     H          0.114506  
         H45       1.0000    0.17220   0.64510   0.34980   Biso      1.000     H          0.16830699999999998           
         H46       1.0000    0.04120   0.61060   0.34440   Biso      1.000     H          0.173071  
         H47       1.0000    0.71590   0.09050   0.68720   Biso      1.000     H          0.169424  
         H48       1.0000    0.61060   0.04120   0.65560   Biso      1.000     H          0.173071  
         H49       1.0000    0.28410   0.90950   0.68720   Biso      1.000     H          0.169424  
         H50       1.0000    0.35490   0.82780   0.65020   Biso      1.000     H          0.16830699999999998           
         H51       1.0000    0.38940   0.95880   0.65560   Biso      1.000     H          0.173071  
         H52       1.0000    0.64510   0.17220   0.65020   Biso      1.000     H          0.16830699999999998           
         H53       1.0000    0.82780   0.35490   0.34980   Biso      1.000     H          0.16830699999999998           
         H54       1.0000    0.95880   0.38940   0.34440   Biso      1.000     H          0.173071  
         H55       1.0000    0.09050   0.71590   0.31280   Biso      1.000     H          0.169424  
         H56       1.0000    0.90950   0.28410   0.31280   Biso      1.000     H          0.169424  
         N1        1.0000    0.24770   0.53850   0.72942   Biso      1.000     N          -0.278341           
         N2        1.0000    0.75230   0.46150   0.27058   Biso      1.000     N          -0.278341           
         N3        1.0000    0.46150   0.75230   0.72942   Biso      1.000     N          -0.278341           
         N4        1.0000    0.53850   0.24770   0.72942   Biso      1.000     N          -0.278341           
         N5        1.0000    0.75230   0.53850   0.22942   Biso      1.000     N          -0.27833  
         N6        1.0000    0.24770   0.46150   0.22942   Biso      1.000     N          -0.278341           
         N7        1.0000    0.24770   0.53850   0.27058   Biso      1.000     N          -0.27833  
         N8        1.0000    0.46150   0.24770   0.22942   Biso      1.000     N          -0.278341           
         N9        1.0000    0.53850   0.75230   0.22942   Biso      1.000     N          -0.278341           
         N10       1.0000    0.75230   0.46150   0.72942   Biso      1.000     N          -0.278341           
         N11       1.0000    0.53850   0.24770   0.27058   Biso      1.000     N          -0.27833  
         N12       1.0000    0.53850   0.75230   0.77058   Biso      1.000     N          -0.27833  
         N13       1.0000    0.24770   0.46150   0.77058   Biso      1.000     N          -0.278331           
         N14       1.0000    0.75230   0.53850   0.77058   Biso      1.000     N          -0.27833  
         N15       1.0000    0.46150   0.24770   0.77058   Biso      1.000     N          -0.27833  
         N16       1.0000    0.46150   0.75230   0.27058   Biso      1.000     N          -0.27833  
         O1        1.0000    0.43160   0.43160   0.13381   Biso      1.000     O          -0.5404329999999999           
         O2        1.0000    0.56840   0.56840   0.13381   Biso      1.000     O          -0.5404329999999999           
         O3        1.0000    0.43160   0.56840   0.63381   Biso      1.000     O          -0.5404329999999999           
         O4        1.0000    0.56840   0.43160   0.36619   Biso      1.000     O          -0.540434           
         O5        1.0000    0.43160   0.56840   0.36619   Biso      1.000     O          -0.540434           
         O6        1.0000    0.43160   0.43160   0.86619   Biso      1.000     O          -0.540434           
         O7        1.0000    0.56840   0.56840   0.86619   Biso      1.000     O          -0.5404329999999999           
         O8        1.0000    0.56840   0.43160   0.63381   Biso      1.000     O          -0.5404329999999999           
         O9        1.0000    0.50000   0.50000   0.25000   Biso      1.000     O          -0.874393           
         O10       1.0000    0.50000   0.50000   0.75000   Biso      1.000     O          -0.874393           
         Zn1       1.0000    0.40139   0.40139   0.20782   Biso      1.000     Zn          0.76359   
         Zn2       1.0000    0.59861   0.59861   0.20782   Biso      1.000     Zn          0.7635890000000001  
         Zn3       1.0000    0.59861   0.40139   0.70782   Biso      1.000     Zn          0.763591  
         Zn4       1.0000    0.40139   0.59861   0.70782   Biso      1.000     Zn          0.763591  
         Zn5       1.0000    0.59861   0.40139   0.29218   Biso      1.000     Zn          0.7635890000000001  
         Zn6       1.0000    0.40139   0.59861   0.29218   Biso      1.000     Zn          0.763588  
         Zn7       1.0000    0.40139   0.40139   0.79218   Biso      1.000     Zn          0.7635890000000001  
         Zn8       1.0000    0.59861   0.59861   0.79218   Biso      1.000     Zn          0.7635890000000001 