
##########################################################################
#               Crystallographic Information Format file
#               Produced by PyCifRW module
#
#  This is a CIF file.  CIF has been adopted by the International
#  Union of Crystallography as the standard for data archiving and
#  transmission.
#
#  For information on this file format, follow the CIF links at
#  http://www.iucr.org
##########################################################################

data_image0

_cell_length_a                          6.3202
_cell_length_b                          15.2843
_cell_length_c                          15.2843
_cell_angle_alpha                       61.8682
_cell_angle_beta                        82.0773
_cell_angle_gamma                       97.9227
_symmetry_space_group_name_H-M          'P 1'
_symmetry_int_tables_number             1
loop_
  _symmetry_equiv_pos_as_xyz
         'x, y, z' 
loop_
  _atom_site_label
  _atom_site_occupancy
  _atom_site_fract_x
  _atom_site_fract_y
  _atom_site_fract_z
  _atom_site_thermal_displace_type
  _atom_site_B_iso_or_equiv
  _atom_site_type_symbol
  _atom_site_charge
         C1        1.0000    0.05707   0.53287   0.56884   Biso      1.000     C          0.29889899999999997           
         C2        1.0000    0.68671   0.08275   0.45195   Biso      1.000     C          -0.137415           
         C3        1.0000    0.47580   0.10171   0.46713   Biso      1.000     C          0.300539  
         C4        1.0000    0.70855   0.98028   0.47980   Biso      1.000     C          -0.196521           
         C5        1.0000    0.73468   0.60628   0.55879   Biso      1.000     C          0.647867  
         C6        1.0000    0.86134   0.54805   0.53470   Biso      1.000     C          -0.138624           
         C7        1.0000    0.81165   0.52020   0.46008   Biso      1.000     C          -0.194329           
         C8        1.0000    0.72827   0.53992   0.98028   Biso      1.000     C          -0.196492           
         C9        1.0000    0.29347   0.55879   0.83493   Biso      1.000     C          0.646991  
         C10       1.0000    0.62591   0.56884   0.89829   Biso      1.000     C          0.299797  
         C11       1.0000    0.27173   0.46008   0.01972   Biso      1.000     C          -0.196492           
         C12       1.0000    0.12840   0.83493   0.60628   Biso      1.000     C          0.649092  
         C13       1.0000    0.31329   0.91725   0.54805   Biso      1.000     C          -0.137415           
         C14       1.0000    0.52420   0.89829   0.53287   Biso      1.000     C          0.300539  
         C15       1.0000    0.29145   0.01972   0.52020   Biso      1.000     C          -0.196521           
         C16       1.0000    0.39604   0.53470   0.91725   Biso      1.000     C          -0.13658  
         C17       1.0000    0.37409   0.43116   0.10171   Biso      1.000     C          0.299797  
         C18       1.0000    0.87160   0.16507   0.39372   Biso      1.000     C          0.649092  
         C19       1.0000    0.70653   0.44121   0.16507   Biso      1.000     C          0.646991  
         C20       1.0000    0.18835   0.47980   0.53992   Biso      1.000     C          -0.194329           
         C21       1.0000    0.94293   0.46713   0.43116   Biso      1.000     C          0.2989    
         C22       1.0000    0.13866   0.45195   0.46530   Biso      1.000     C          -0.138624           
         C23       1.0000    0.26532   0.39372   0.44121   Biso      1.000     C          0.647867  
         C24       1.0000    0.60396   0.46530   0.08275   Biso      1.000     C          -0.13658  
         H1        1.0000    0.31777   0.46516   0.56644   Biso      1.000     H          0.145927  
         H2        1.0000    0.85261   0.96840   0.46516   Biso      1.000     H          0.145669  
         H3        1.0000    0.68223   0.53484   0.43356   Biso      1.000     H          0.145927  
         H4        1.0000    0.88421   0.56644   0.96840   Biso      1.000     H          0.1465    
         H5        1.0000    0.11579   0.43356   0.03160   Biso      1.000     H          0.1465    
         H6        1.0000    0.14739   0.03160   0.53484   Biso      1.000     H          0.145669  
         O1        1.0000    0.04078   0.15114   0.35168   Biso      1.000     O          -0.5400189999999999           
         O2        1.0000    0.11084   0.56369   0.63668   Biso      1.000     O          -0.605858           
         O3        1.0000    0.11036   0.50282   0.84886   Biso      1.000     O          -0.539369           
         O4        1.0000    0.36055   0.64543   0.75510   Biso      1.000     O          -0.611499           
         O5        1.0000    0.74752   0.63668   0.79963   Biso      1.000     O          -0.6062810000000001           
         O6        1.0000    0.95922   0.84886   0.64832   Biso      1.000     O          -0.5400189999999999           
         O7        1.0000    0.60754   0.64832   0.50282   Biso      1.000     O          -0.539521           
         O8        1.0000    0.45285   0.20037   0.43631   Biso      1.000     O          -0.605645           
         O9        1.0000    0.88435   0.24490   0.40053   Biso      1.000     O          -0.6122340000000001           
         O10       1.0000    0.71512   0.59947   0.64543   Biso      1.000     O          -0.611502           
         O11       1.0000    0.25248   0.36332   0.20037   Biso      1.000     O          -0.6062810000000001           
         O12       1.0000    0.54715   0.79963   0.56369   Biso      1.000     O          -0.605644           
         O13       1.0000    0.88964   0.49718   0.15114   Biso      1.000     O          -0.539369           
         O14       1.0000    0.88916   0.43631   0.36332   Biso      1.000     O          -0.605858           
         O15       1.0000    0.28488   0.40053   0.35457   Biso      1.000     O          -0.611502           
         O16       1.0000    0.39246   0.35168   0.49718   Biso      1.000     O          -0.539521           
         O17       1.0000    0.11565   0.75510   0.59947   Biso      1.000     O          -0.6122340000000001           
         O18       1.0000    0.63945   0.35457   0.24490   Biso      1.000     O          -0.611499           
         Zn1       1.0000    0.67695   0.73634   0.68709   Biso      1.000     Zn          0.996444  
         Zn2       1.0000    0.94061   0.57657   0.73634   Biso      1.000     Zn          0.9974879999999999  
         Zn3       1.0000    0.36404   0.68709   0.57657   Biso      1.000     Zn          0.9966729999999999  
         Zn4       1.0000    0.32305   0.26366   0.31291   Biso      1.000     Zn          0.996444  
         Zn5       1.0000    0.05939   0.42343   0.26366   Biso      1.000     Zn          0.9974879999999999  
         Zn6       1.0000    0.63596   0.31291   0.42343   Biso      1.000     Zn          0.9966729999999999 