
##########################################################################
#               Crystallographic Information Format file
#               Produced by PyCifRW module
#
#  This is a CIF file.  CIF has been adopted by the International
#  Union of Crystallography as the standard for data archiving and
#  transmission.
#
#  For information on this file format, follow the CIF links at
#  http://www.iucr.org
##########################################################################

data_image0

_cell_length_a                          10.3349
_cell_length_b                          11.8962
_cell_length_c                          20.2894
_cell_angle_alpha                       90
_cell_angle_beta                        90
_cell_angle_gamma                       90
_symmetry_space_group_name_H-M          'P 1'
_symmetry_int_tables_number             1
loop_
  _symmetry_equiv_pos_as_xyz
         'x, y, z' 
loop_
  _atom_site_label
  _atom_site_occupancy
  _atom_site_fract_x
  _atom_site_fract_y
  _atom_site_fract_z
  _atom_site_thermal_displace_type
  _atom_site_B_iso_or_equiv
  _atom_site_type_symbol
  _atom_site_charge
         C1        1.0000    0.74120   0.02990   0.69430   Biso      1.000     C          -0.206353           
         C2        1.0000    0.26750   0.55610   0.10250   Biso      1.000     C          0.572318  
         C3        1.0000    0.87080   0.00270   0.22840   Biso      1.000     C          -0.129455           
         C4        1.0000    0.22400   0.90680   0.10680   Biso      1.000     C          -0.521806           
         C5        1.0000    0.64850   0.96160   0.22650   Biso      1.000     C          0.213488  
         C6        1.0000    0.74230   0.02650   0.32760   Biso      1.000     C          -0.068324           
         C7        1.0000    0.75880   0.97010   0.19430   Biso      1.000     C          -0.206311           
         C8        1.0000    0.75770   0.97350   0.82760   Biso      1.000     C          -0.068323           
         C9        1.0000    0.27010   0.10660   0.53140   Biso      1.000     C          0.142768  
         C10       1.0000    0.77600   0.40680   0.39320   Biso      1.000     C          -0.521806           
         C11       1.0000    0.14700   0.17150   0.51350   Biso      1.000     C          0.604626  
         C12       1.0000    0.22170   0.44140   0.37790   Biso      1.000     C          0.580686  
         C13       1.0000    0.72170   0.05860   0.62210   Biso      1.000     C          0.580686  
         C14       1.0000    0.76750   0.94390   0.89750   Biso      1.000     C          0.572318  
         C15       1.0000    0.13440   0.53150   0.20460   Biso      1.000     C          -0.138195           
         C16       1.0000    0.24120   0.47010   0.30570   Biso      1.000     C          -0.206353           
         C17       1.0000    0.25770   0.52650   0.17240   Biso      1.000     C          -0.068323           
         C18       1.0000    0.35150   0.46160   0.27350   Biso      1.000     C          0.213526  
         C19       1.0000    0.12920   0.50270   0.27160   Biso      1.000     C          -0.129448           
         C20       1.0000    0.77010   0.39340   0.46860   Biso      1.000     C          0.142768  
         C21       1.0000    0.63790   0.99180   0.29100   Biso      1.000     C          -0.293031           
         C22       1.0000    0.36210   0.49180   0.20900   Biso      1.000     C          -0.293034           
         C23       1.0000    0.63440   0.96850   0.79540   Biso      1.000     C          -0.138195           
         C24       1.0000    0.86560   0.03150   0.29540   Biso      1.000     C          -0.138194           
         C25       1.0000    0.85150   0.03840   0.72650   Biso      1.000     C          0.213526  
         C26       1.0000    0.72400   0.59320   0.89320   Biso      1.000     C          -0.521806           
         C27       1.0000    0.62920   0.99730   0.72840   Biso      1.000     C          -0.129448           
         C28       1.0000    0.27600   0.09320   0.60680   Biso      1.000     C          -0.521806           
         C29       1.0000    0.73250   0.05610   0.39750   Biso      1.000     C          0.572318  
         C30       1.0000    0.86210   0.00820   0.79100   Biso      1.000     C          -0.293034           
         C31       1.0000    0.72990   0.60660   0.96860   Biso      1.000     C          0.142768  
         C32       1.0000    0.25880   0.52990   0.80570   Biso      1.000     C          -0.206353           
         C33       1.0000    0.24230   0.47350   0.67240   Biso      1.000     C          -0.068323           
         C34       1.0000    0.23250   0.44390   0.60250   Biso      1.000     C          0.572318  
         C35       1.0000    0.14850   0.53840   0.77350   Biso      1.000     C          0.213526  
         C36       1.0000    0.85300   0.67150   0.98650   Biso      1.000     C          0.604626  
         C37       1.0000    0.13790   0.50820   0.70900   Biso      1.000     C          -0.293034           
         C38       1.0000    0.77830   0.94140   0.12210   Biso      1.000     C          0.580681  
         C39       1.0000    0.36560   0.46850   0.70460   Biso      1.000     C          -0.138195           
         C40       1.0000    0.27830   0.55860   0.87790   Biso      1.000     C          0.580686  
         C41       1.0000    0.35300   0.82850   0.01350   Biso      1.000     C          0.604626  
         C42       1.0000    0.22990   0.89340   0.03140   Biso      1.000     C          0.142768  
         C43       1.0000    0.37080   0.49730   0.77160   Biso      1.000     C          -0.129448           
         C44       1.0000    0.64700   0.32850   0.48650   Biso      1.000     C          0.604626  
         H1        1.0000    0.56030   0.94700   0.81820   Biso      1.000     H          0.121995  
         H2        1.0000    0.55040   0.99480   0.70630   Biso      1.000     H          0.111118  
         H3        1.0000    0.94300   0.01120   0.81110   Biso      1.000     H          0.113395  
         H4        1.0000    0.25830   0.16430   0.62740   Biso      1.000     H          0.160743  
         H5        1.0000    0.95820   0.08020   0.65430   Biso      1.000     H          0.372244  
         H6        1.0000    0.03090   0.02690   0.70710   Biso      1.000     H          0.368753  
         H7        1.0000    0.98840   0.14280   0.71390   Biso      1.000     H          0.375994  
         H8        1.0000    0.86070   0.43200   0.38060   Biso      1.000     H          0.173468  
         H9        1.0000    0.71280   0.46090   0.37930   Biso      1.000     H          0.144232  
         H10       1.0000    0.94960   0.00520   0.20630   Biso      1.000     H          0.111118  
         H11       1.0000    0.55700   0.98880   0.31110   Biso      1.000     H          0.113395  
         H12       1.0000    0.93970   0.05300   0.31820   Biso      1.000     H          0.121995  
         H13       1.0000    0.73400   0.53200   0.98900   Biso      1.000     H          0.065371  
         H14       1.0000    0.54180   0.91980   0.15430   Biso      1.000     H          0.372244  
         H15       1.0000    0.46910   0.97310   0.20710   Biso      1.000     H          0.368752  
         H16       1.0000    0.51160   0.85720   0.21390   Biso      1.000     H          0.375994  
         H17       1.0000    0.63930   0.56800   0.88060   Biso      1.000     H          0.173468  
         H18       1.0000    0.76600   0.46800   0.48900   Biso      1.000     H          0.065371  
         H19       1.0000    0.75830   0.33570   0.37260   Biso      1.000     H          0.160743  
         H20       1.0000    0.74170   0.66430   0.87260   Biso      1.000     H          0.160743  
         H21       1.0000    0.26600   0.03200   0.51100   Biso      1.000     H          0.065371  
         H22       1.0000    0.05040   0.50520   0.29370   Biso      1.000     H          0.111118  
         H23       1.0000    0.44300   0.48880   0.18890   Biso      1.000     H          0.113395  
         H24       1.0000    0.06030   0.55300   0.18180   Biso      1.000     H          0.121995  
         H25       1.0000    0.01160   0.64280   0.78610   Biso      1.000     H          0.375994  
         H26       1.0000    0.45820   0.41980   0.34570   Biso      1.000     H          0.372244  
         H27       1.0000    0.53090   0.47310   0.29290   Biso      1.000     H          0.368753  
         H28       1.0000    0.48840   0.35720   0.28610   Biso      1.000     H          0.375994  
         H29       1.0000    0.04180   0.58020   0.84570   Biso      1.000     H          0.372244  
         H30       1.0000    0.36070   0.06800   0.61940   Biso      1.000     H          0.173468  
         H31       1.0000    0.78720   0.53910   0.87930   Biso      1.000     H          0.144231  
         H32       1.0000    0.13930   0.93200   0.11940   Biso      1.000     H          0.173468  
         H33       1.0000    0.23400   0.96800   0.01100   Biso      1.000     H          0.065371  
         H34       1.0000    0.43970   0.44700   0.68180   Biso      1.000     H          0.121995  
         H35       1.0000    0.05700   0.51120   0.68890   Biso      1.000     H          0.113395  
         H36       1.0000    0.44960   0.49480   0.79370   Biso      1.000     H          0.111118  
         H37       1.0000    0.28720   0.96090   0.12070   Biso      1.000     H          0.144231  
         H38       1.0000    0.24170   0.83570   0.12740   Biso      1.000     H          0.160743  
         H39       1.0000    0.21280   0.03910   0.62070   Biso      1.000     H          0.144231  
         H40       1.0000    0.96910   0.52690   0.79290   Biso      1.000     H          0.368753  
         N1        1.0000    0.96800   0.07550   0.69780   Biso      1.000     N          -0.550122           
         N2        1.0000    0.53200   0.92450   0.19780   Biso      1.000     N          -0.550119           
         N3        1.0000    0.46800   0.42450   0.30220   Biso      1.000     N          -0.550122           
         N4        1.0000    0.03200   0.57550   0.80220   Biso      1.000     N          -0.550122           
         O1        1.0000    0.45870   0.87530   0.02460   Biso      1.000     O          -0.547007           
         O2        1.0000    0.33960   0.73160   0.99120   Biso      1.000     O          -0.55862  
         O3        1.0000    0.95870   0.62470   0.97540   Biso      1.000     O          -0.547007           
         O4        1.0000    0.83960   0.76840   0.00880   Biso      1.000     O          -0.558619           
         O5        1.0000    0.61920   0.66200   0.99220   Biso      1.000     O          -0.622329           
         O6        1.0000    0.83250   0.08750   0.42700   Biso      1.000     O          -0.585545           
         O7        1.0000    0.62200   0.04530   0.42350   Biso      1.000     O          -0.633467           
         O8        1.0000    0.88480   0.95700   0.09640   Biso      1.000     O          -0.568836           
         O9        1.0000    0.82040   0.09800   0.59320   Biso      1.000     O          -0.627589           
         O10       1.0000    0.33250   0.41250   0.57300   Biso      1.000     O          -0.585545           
         O11       1.0000    0.61520   0.04300   0.59640   Biso      1.000     O          -0.568837           
         O12       1.0000    0.87800   0.95470   0.92350   Biso      1.000     O          -0.633467           
         O13       1.0000    0.66750   0.91250   0.92700   Biso      1.000     O          -0.585545           
         O14       1.0000    0.88080   0.33800   0.49220   Biso      1.000     O          -0.622329           
         O15       1.0000    0.66040   0.23160   0.50880   Biso      1.000     O          -0.55862  
         O16       1.0000    0.54130   0.37530   0.47540   Biso      1.000     O          -0.547007           
         O17       1.0000    0.04130   0.12470   0.52460   Biso      1.000     O          -0.547006           
         O18       1.0000    0.67960   0.90200   0.09320   Biso      1.000     O          -0.627589           
         O19       1.0000    0.16040   0.26840   0.49120   Biso      1.000     O          -0.55862  
         O20       1.0000    0.16750   0.58750   0.07300   Biso      1.000     O          -0.585545           
         O21       1.0000    0.37800   0.54530   0.07650   Biso      1.000     O          -0.633467           
         O22       1.0000    0.11520   0.45700   0.40360   Biso      1.000     O          -0.568837           
         O23       1.0000    0.11920   0.83800   0.00780   Biso      1.000     O          -0.622329           
         O24       1.0000    0.17960   0.59800   0.90680   Biso      1.000     O          -0.627589           
         O25       1.0000    0.38480   0.54300   0.90360   Biso      1.000     O          -0.568837           
         O26       1.0000    0.12200   0.45470   0.57650   Biso      1.000     O          -0.633467           
         O27       1.0000    0.38080   0.16200   0.50780   Biso      1.000     O          -0.622329           
         O28       1.0000    0.32040   0.40200   0.40680   Biso      1.000     O          -0.627589           
         Zn1       1.0000    0.45562   0.58325   0.99026   Biso      1.000     Zn          0.975214  
         Zn2       1.0000    0.64246   0.82350   0.00928   Biso      1.000     Zn          0.954222  
         Zn3       1.0000    0.54438   0.08325   0.50974   Biso      1.000     Zn          0.975214  
         Zn4       1.0000    0.35754   0.32350   0.49072   Biso      1.000     Zn          0.954223  
         Zn5       1.0000    0.04438   0.41675   0.49026   Biso      1.000     Zn          0.975214  
         Zn6       1.0000    0.85754   0.17650   0.50928   Biso      1.000     Zn          0.954222  
         Zn7       1.0000    0.95562   0.91675   0.00974   Biso      1.000     Zn          0.975214  
         Zn8       1.0000    0.14246   0.67650   0.99072   Biso      1.000     Zn          0.954222 