
##########################################################################
#               Crystallographic Information Format file
#               Produced by PyCifRW module
#
#  This is a CIF file.  CIF has been adopted by the International
#  Union of Crystallography as the standard for data archiving and
#  transmission.
#
#  For information on this file format, follow the CIF links at
#  http://www.iucr.org
##########################################################################

data_image0

_cell_length_a                          10.66
_cell_length_b                          11.377
_cell_length_c                          12.509
_cell_angle_alpha                       86.24
_cell_angle_beta                        81.85
_cell_angle_gamma                       89.07
_symmetry_space_group_name_H-M          'P 1'
_symmetry_int_tables_number             1
loop_
  _symmetry_equiv_pos_as_xyz
         'x, y, z' 
loop_
  _atom_site_label
  _atom_site_occupancy
  _atom_site_fract_x
  _atom_site_fract_y
  _atom_site_fract_z
  _atom_site_thermal_displace_type
  _atom_site_B_iso_or_equiv
  _atom_site_type_symbol
  _atom_site_charge
         C1        1.0000    0.76390   0.04020   0.11400   Biso      1.000     C          -0.119788           
         C2        1.0000    0.60000   0.76200   0.05530   Biso      1.000     C          0.671975  
         C3        1.0000    0.43420   0.32420   0.36190   Biso      1.000     C          0.554242  
         C4        1.0000    0.51980   0.95760   0.13150   Biso      1.000     C          0.070918  
         C5        1.0000    0.74360   0.92880   0.08020   Biso      1.000     C          -0.055969000000000005         
         C6        1.0000    0.94610   0.35050   0.21440   Biso      1.000     C          0.047443  
         C7        1.0000    0.23610   0.95980   0.88600   Biso      1.000     C          -0.119788           
         C8        1.0000    0.05390   0.64950   0.78560   Biso      1.000     C          0.047443  
         C9        1.0000    0.25640   0.07120   0.91980   Biso      1.000     C          -0.055969000000000005         
         C10       1.0000    0.48020   0.04240   0.86850   Biso      1.000     C          0.070918  
         C11       1.0000    0.56580   0.67580   0.63810   Biso      1.000     C          0.554242  
         C12       1.0000    0.60350   0.68310   0.38940   Biso      1.000     C          0.609505  
         C13       1.0000    0.38140   0.92010   0.14440   Biso      1.000     C          0.535272  
         C14       1.0000    0.40000   0.23800   0.94470   Biso      1.000     C          0.671975  
         C15       1.0000    0.69890   0.98650   0.45450   Biso      1.000     C          -0.117827           
         C16       1.0000    0.67280   0.89160   0.39810   Biso      1.000     C          -0.060608           
         C17       1.0000    0.61820   0.78210   0.56770   Biso      1.000     C          0.078472  
         C18       1.0000    0.63130   0.78550   0.45480   Biso      1.000     C          -0.014976           
         C19       1.0000    0.83200   0.65210   0.85290   Biso      1.000     C          0.086503  
         C20       1.0000    0.68660   0.97490   0.56670   Biso      1.000     C          0.08534   
         C21       1.0000    0.91590   0.80490   0.73520   Biso      1.000     C          0.083175  
         C22       1.0000    0.03570   0.75520   0.72780   Biso      1.000     C          -0.152739           
         C23       1.0000    0.94890   0.59830   0.84900   Biso      1.000     C          -0.13408299999999998          
         C24       1.0000    0.61860   0.07990   0.85560   Biso      1.000     C          0.535273  
         C25       1.0000    0.34020   0.89340   0.84390   Biso      1.000     C          0.083901  
         C26       1.0000    0.37920   0.11450   0.91100   Biso      1.000     C          -0.054738           
         C27       1.0000    0.81670   0.40770   0.21980   Biso      1.000     C          0.571364  
         C28       1.0000    0.18330   0.59230   0.78020   Biso      1.000     C          0.571364  
         C29       1.0000    0.65980   0.10660   0.15610   Biso      1.000     C          0.083901  
         C30       1.0000    0.39650   0.31690   0.61060   Biso      1.000     C          0.609505  
         C31       1.0000    0.62080   0.88550   0.08900   Biso      1.000     C          -0.054738           
         C32       1.0000    0.30110   0.01350   0.54550   Biso      1.000     C          -0.117827           
         C33       1.0000    0.32720   0.10840   0.60190   Biso      1.000     C          -0.060608           
         C34       1.0000    0.38180   0.21790   0.43230   Biso      1.000     C          0.078472  
         C35       1.0000    0.16800   0.34790   0.14710   Biso      1.000     C          0.086503  
         C36       1.0000    0.31340   0.02510   0.43330   Biso      1.000     C          0.08534   
         C37       1.0000    0.08410   0.19510   0.26480   Biso      1.000     C          0.083175  
         C38       1.0000    0.36870   0.21450   0.54520   Biso      1.000     C          -0.014976           
         C39       1.0000    0.05110   0.40170   0.15100   Biso      1.000     C          -0.13408299999999998          
         C40       1.0000    0.96430   0.24480   0.27220   Biso      1.000     C          -0.152739           
         Dy1       1.0000    0.42669   0.48592   0.76187   Biso      1.000     Dy          2.014859  
         Dy2       1.0000    0.57331   0.51408   0.23813   Biso      1.000     Dy          2.014859  
         H1        1.0000    0.68270   0.89790   0.32290   Biso      1.000     H          0.11818599999999999           
         H2        1.0000    0.10360   0.79230   0.68440   Biso      1.000     H          0.131726  
         H3        1.0000    0.90540   0.87610   0.69650   Biso      1.000     H          0.100634  
         H4        1.0000    0.70570   0.03880   0.60410   Biso      1.000     H          0.112799  
         H5        1.0000    0.76300   0.61660   0.89620   Biso      1.000     H          0.101604  
         H6        1.0000    0.04230   0.47250   0.11100   Biso      1.000     H          0.14082999999999998           
         H7        1.0000    0.27560   0.94240   0.58240   Biso      1.000     H          0.127038  
         H8        1.0000    0.84560   0.06980   0.10850   Biso      1.000     H          0.123341  
         H9        1.0000    0.31730   0.10210   0.67710   Biso      1.000     H          0.11818599999999999           
         H10       1.0000    0.89640   0.20770   0.31560   Biso      1.000     H          0.131726  
         H11       1.0000    0.72440   0.05760   0.41760   Biso      1.000     H          0.127038  
         H12       1.0000    0.67300   0.18060   0.17980   Biso      1.000     H          0.093708  
         H13       1.0000    0.81200   0.88330   0.05170   Biso      1.000     H          0.12578399999999998           
         H14       1.0000    0.23700   0.38340   0.10380   Biso      1.000     H          0.101605  
         H15       1.0000    0.29430   0.96120   0.39590   Biso      1.000     H          0.112799  
         H16       1.0000    0.32700   0.81940   0.82020   Biso      1.000     H          0.093708  
         H17       1.0000    0.18800   0.11670   0.94830   Biso      1.000     H          0.12578399999999998           
         H18       1.0000    0.09460   0.12390   0.30350   Biso      1.000     H          0.100634  
         H19       1.0000    0.15440   0.93020   0.89150   Biso      1.000     H          0.123341  
         H20       1.0000    0.95770   0.52750   0.88900   Biso      1.000     H          0.14082999999999998           
         N1        1.0000    0.35220   0.12650   0.37700   Biso      1.000     N          -0.240585           
         N2        1.0000    0.18660   0.24500   0.20420   Biso      1.000     N          -0.199959           
         N3        1.0000    0.46010   0.93360   0.83640   Biso      1.000     N          -0.235659           
         N4        1.0000    0.81340   0.75500   0.79580   Biso      1.000     N          -0.199959           
         N5        1.0000    0.53990   0.06640   0.16360   Biso      1.000     N          -0.235659           
         N6        1.0000    0.64780   0.87350   0.62300   Biso      1.000     N          -0.240585           
         O1        1.0000    0.55280   0.68210   0.74090   Biso      1.000     O          -0.636564           
         O2        1.0000    0.70120   0.00160   0.82520   Biso      1.000     O          -0.587059           
         O3        1.0000    0.41740   0.25150   0.04110   Biso      1.000     O          -0.564517           
         O4        1.0000    0.39210   0.31990   0.87400   Biso      1.000     O          -0.713331           
         O5        1.0000    0.19810   0.49740   0.83590   Biso      1.000     O          -0.606085           
         O6        1.0000    0.50300   0.32280   0.64170   Biso      1.000     O          -0.609907           
         O7        1.0000    0.35770   0.81730   0.12510   Biso      1.000     O          -0.537265           
         O8        1.0000    0.69260   0.61140   0.36090   Biso      1.000     O          -0.607912           
         O9        1.0000    0.49700   0.67720   0.35830   Biso      1.000     O          -0.609907           
         O10       1.0000    0.53180   0.58720   0.59520   Biso      1.000     O          -0.542447           
         O11       1.0000    0.46820   0.41280   0.40480   Biso      1.000     O          -0.542447           
         O12       1.0000    0.44720   0.31790   0.25910   Biso      1.000     O          -0.636564           
         O13       1.0000    0.80190   0.50260   0.16410   Biso      1.000     O          -0.606085           
         O14       1.0000    0.58260   0.74850   0.95890   Biso      1.000     O          -0.564517           
         O15       1.0000    0.29880   0.99840   0.17480   Biso      1.000     O          -0.587058           
         O16       1.0000    0.60790   0.68010   0.12600   Biso      1.000     O          -0.713331           
         O17       1.0000    0.72270   0.35880   0.28120   Biso      1.000     O          -0.629929           
         O18       1.0000    0.30740   0.38860   0.63910   Biso      1.000     O          -0.607913           
         O19       1.0000    0.27730   0.64120   0.71880   Biso      1.000     O          -0.629929           
         O20       1.0000    0.64230   0.18270   0.87490   Biso      1.000     O          -0.537265           
         Zn1       1.0000    0.63189   0.83590   0.79933   Biso      1.000     Zn          0.7533270000000001  
         Zn2       1.0000    0.36811   0.16410   0.20067   Biso      1.000     Zn          0.7533270000000001 