
##########################################################################
#               Crystallographic Information Format file
#               Produced by PyCifRW module
#
#  This is a CIF file.  CIF has been adopted by the International
#  Union of Crystallography as the standard for data archiving and
#  transmission.
#
#  For information on this file format, follow the CIF links at
#  http://www.iucr.org
##########################################################################

data_image0

_cell_length_a                          10.4503
_cell_length_b                          11.438
_cell_length_c                          16.6457
_cell_angle_alpha                       90
_cell_angle_beta                        90
_cell_angle_gamma                       108.225
_symmetry_space_group_name_H-M          'P 1'
_symmetry_int_tables_number             1
loop_
  _symmetry_equiv_pos_as_xyz
         'x, y, z' 
loop_
  _atom_site_label
  _atom_site_occupancy
  _atom_site_fract_x
  _atom_site_fract_y
  _atom_site_fract_z
  _atom_site_thermal_displace_type
  _atom_site_B_iso_or_equiv
  _atom_site_type_symbol
  _atom_site_charge
         C1        1.0000    0.09236   0.56602   0.85973   Biso      1.000     C          0.6525310000000001  
         C2        1.0000    0.56527   0.69353   0.68976   Biso      1.000     C          -0.035266000000000006         
         C3        1.0000    0.67838   0.79505   0.70236   Biso      1.000     C          -0.03998  
         C4        1.0000    0.81101   0.84416   0.66255   Biso      1.000     C          0.607517  
         C5        1.0000    0.52729   0.58680   0.63434   Biso      1.000     C          0.632046  
         C6        1.0000    0.22780   0.48110   0.22821   Biso      1.000     C          0.269878  
         C7        1.0000    0.02019   0.44502   0.19682   Biso      1.000     C          -0.003068           
         C8        1.0000    0.02909   0.41970   0.27801   Biso      1.000     C          0.024354  
         C9        1.0000    0.90764   0.43398   0.14027   Biso      1.000     C          0.652532  
         C10       1.0000    0.93098   0.37940   0.34428   Biso      1.000     C          0.60987   
         C11       1.0000    0.52381   0.80385   0.78452   Biso      1.000     C          0.174225  
         C12       1.0000    0.97619   0.69615   0.28452   Biso      1.000     C          0.174225  
         C13       1.0000    0.82162   0.70495   0.20236   Biso      1.000     C          -0.039981           
         C14       1.0000    0.68899   0.65584   0.16255   Biso      1.000     C          0.607517  
         C15       1.0000    0.97271   0.91320   0.13434   Biso      1.000     C          0.632046  
         C16       1.0000    0.72780   0.98110   0.27179   Biso      1.000     C          0.269878  
         C17       1.0000    0.52019   0.94502   0.30318   Biso      1.000     C          -0.003068           
         C18       1.0000    0.52909   0.91970   0.22199   Biso      1.000     C          0.024354  
         C19       1.0000    0.40764   0.93398   0.35973   Biso      1.000     C          0.6525310000000001  
         C20       1.0000    0.43098   0.87940   0.15572   Biso      1.000     C          0.60987   
         C21       1.0000    0.47619   0.19615   0.21548   Biso      1.000     C          0.174225  
         C22       1.0000    0.93473   0.80647   0.18976   Biso      1.000     C          -0.035265           
         C23       1.0000    0.56902   0.12060   0.84428   Biso      1.000     C          0.609869  
         C24       1.0000    0.59236   0.06602   0.64027   Biso      1.000     C          0.6525310000000001  
         C25       1.0000    0.47091   0.08030   0.77801   Biso      1.000     C          0.024354  
         C26       1.0000    0.02729   0.08680   0.86566   Biso      1.000     C          0.632046  
         C27       1.0000    0.31101   0.34416   0.83745   Biso      1.000     C          0.607517  
         C28       1.0000    0.17838   0.29505   0.79764   Biso      1.000     C          -0.03998  
         C29       1.0000    0.06527   0.19353   0.81024   Biso      1.000     C          -0.035265           
         C30       1.0000    0.02381   0.30385   0.71548   Biso      1.000     C          0.174224  
         C31       1.0000    0.06902   0.62060   0.65572   Biso      1.000     C          0.609869  
         C32       1.0000    0.97091   0.58030   0.72199   Biso      1.000     C          0.024354  
         C33       1.0000    0.97981   0.55498   0.80318   Biso      1.000     C          -0.0030670000000000003        
         C34       1.0000    0.77220   0.51890   0.77179   Biso      1.000     C          0.269878  
         C35       1.0000    0.47271   0.41320   0.36566   Biso      1.000     C          0.632046  
         C36       1.0000    0.18899   0.15584   0.33745   Biso      1.000     C          0.607517  
         C37       1.0000    0.27220   0.01890   0.72821   Biso      1.000     C          0.269878  
         C38       1.0000    0.47981   0.05498   0.69682   Biso      1.000     C          -0.0030670000000000003        
         C39       1.0000    0.43473   0.30647   0.31024   Biso      1.000     C          -0.035265           
         C40       1.0000    0.32162   0.20495   0.29764   Biso      1.000     C          -0.03998  
         H1        1.0000    0.17800   0.99750   0.72320   Biso      1.000     H          0.0975    
         H2        1.0000    0.47600   0.83150   0.82470   Biso      1.000     H          0.071866  
         H3        1.0000    0.32200   0.50250   0.22320   Biso      1.000     H          0.0975    
         H4        1.0000    0.02400   0.66850   0.32470   Biso      1.000     H          0.071866  
         H5        1.0000    0.82200   0.00250   0.27680   Biso      1.000     H          0.0975    
         H6        1.0000    0.52400   0.16850   0.17530   Biso      1.000     H          0.071866  
         H7        1.0000    0.67800   0.49750   0.77680   Biso      1.000     H          0.0975    
         H8        1.0000    0.97600   0.33150   0.67530   Biso      1.000     H          0.071867  
         Mg1       1.0000    0.34922   0.96698   0.54001   Biso      1.000     Mg          1.478734  
         Mg2       1.0000    0.29412   0.54626   0.73729   Biso      1.000     Mg          1.264445  
         Mg3       1.0000    0.79412   0.04626   0.76271   Biso      1.000     Mg          1.264445  
         Mg4       1.0000    0.31341   0.10564   0.91995   Biso      1.000     Mg          1.443576  
         Mg5       1.0000    0.70588   0.45374   0.26271   Biso      1.000     Mg          1.264445  
         Mg6       1.0000    0.18659   0.39436   0.41995   Biso      1.000     Mg          1.443575  
         Mg7       1.0000    0.15078   0.53302   0.04001   Biso      1.000     Mg          1.478733  
         Mg8       1.0000    0.81341   0.60564   0.58005   Biso      1.000     Mg          1.443576  
         Mg9       1.0000    0.20588   0.95374   0.23729   Biso      1.000     Mg          1.264445  
         Mg10      1.0000    0.68659   0.89436   0.08005   Biso      1.000     Mg          1.443576  
         Mg11      1.0000    0.84922   0.46698   0.95999   Biso      1.000     Mg          1.478732  
         Mg12      1.0000    0.65078   0.03302   0.45999   Biso      1.000     Mg          1.478732  
         N1        1.0000    0.35016   0.13493   0.23714   Biso      1.000     N          -0.447374           
         N2        1.0000    0.96806   0.20059   0.75693   Biso      1.000     N          -0.419451           
         N3        1.0000    0.14984   0.36507   0.73714   Biso      1.000     N          -0.447374           
         N4        1.0000    0.83786   0.55787   0.70302   Biso      1.000     N          -0.449008           
         N5        1.0000    0.85160   0.51534   0.83415   Biso      1.000     N          -0.542966           
         N6        1.0000    0.53194   0.29941   0.25693   Biso      1.000     N          -0.419451           
         N7        1.0000    0.64840   0.98466   0.33415   Biso      1.000     N          -0.542966           
         N8        1.0000    0.66214   0.94213   0.20302   Biso      1.000     N          -0.449008           
         N9        1.0000    0.85016   0.63493   0.26286   Biso      1.000     N          -0.44737299999999997          
         N10       1.0000    0.16214   0.44213   0.29698   Biso      1.000     N          -0.449008           
         N11       1.0000    0.14840   0.48466   0.16585   Biso      1.000     N          -0.542966           
         N12       1.0000    0.46806   0.70059   0.74307   Biso      1.000     N          -0.419451           
         N13       1.0000    0.64984   0.86507   0.76286   Biso      1.000     N          -0.447374           
         N14       1.0000    0.33786   0.05787   0.79698   Biso      1.000     N          -0.449008           
         N15       1.0000    0.35160   0.01534   0.66585   Biso      1.000     N          -0.542966           
         N16       1.0000    0.03194   0.79941   0.24307   Biso      1.000     N          -0.419451           
         O1        1.0000    0.28854   0.90560   0.33803   Biso      1.000     O          -0.566399           
         O2        1.0000    0.47657   0.85557   0.08902   Biso      1.000     O          -0.6915180000000001           
         O3        1.0000    0.30927   0.87051   0.16520   Biso      1.000     O          -0.620633           
         O4        1.0000    0.11246   0.05505   0.31027   Biso      1.000     O          -0.624315           
         O5        1.0000    0.15943   0.21079   0.39685   Biso      1.000     O          -0.7286   
         O6        1.0000    0.59452   0.48039   0.36222   Biso      1.000     O          -0.627178           
         O7        1.0000    0.02343   0.64443   0.58902   Biso      1.000     O          -0.6915180000000001           
         O8        1.0000    0.05595   0.54401   0.93312   Biso      1.000     O          -0.815253           
         O9        1.0000    0.21146   0.59440   0.83803   Biso      1.000     O          -0.566399           
         O10       1.0000    0.34057   0.28921   0.89685   Biso      1.000     O          -0.7286   
         O11       1.0000    0.19073   0.62949   0.66520   Biso      1.000     O          -0.620633           
         O12       1.0000    0.38754   0.44495   0.81027   Biso      1.000     O          -0.624315           
         O13       1.0000    0.44405   0.95599   0.43312   Biso      1.000     O          -0.815253           
         O14       1.0000    0.38897   0.43624   0.41197   Biso      1.000     O          -0.715533           
         O15       1.0000    0.88897   0.93624   0.08803   Biso      1.000     O          -0.715533           
         O16       1.0000    0.52343   0.14443   0.91098   Biso      1.000     O          -0.6915180000000001           
         O17       1.0000    0.65943   0.71079   0.10315   Biso      1.000     O          -0.7286   
         O18       1.0000    0.61246   0.55505   0.18973   Biso      1.000     O          -0.624315           
         O19       1.0000    0.80927   0.37051   0.33480   Biso      1.000     O          -0.620633           
         O20       1.0000    0.97657   0.35557   0.41098   Biso      1.000     O          -0.6915180000000001           
         O21       1.0000    0.78854   0.40560   0.16197   Biso      1.000     O          -0.566399           
         O22       1.0000    0.94405   0.45599   0.06688   Biso      1.000     O          -0.815253           
         O23       1.0000    0.61103   0.56376   0.58803   Biso      1.000     O          -0.715534           
         O24       1.0000    0.40548   0.51961   0.63778   Biso      1.000     O          -0.627178           
         O25       1.0000    0.84057   0.78921   0.60315   Biso      1.000     O          -0.7286   
         O26       1.0000    0.88754   0.94495   0.68973   Biso      1.000     O          -0.624315           
         O27       1.0000    0.69073   0.12949   0.83480   Biso      1.000     O          -0.620633           
         O28       1.0000    0.71146   0.09440   0.66197   Biso      1.000     O          -0.566399           
         O29       1.0000    0.55595   0.04401   0.56688   Biso      1.000     O          -0.815253           
         O30       1.0000    0.90548   0.01961   0.86222   Biso      1.000     O          -0.627178           
         O31       1.0000    0.09452   0.98039   0.13778   Biso      1.000     O          -0.627178           
         O32       1.0000    0.11103   0.06376   0.91197   Biso      1.000     O          -0.715533 