
##########################################################################
#               Crystallographic Information Format file
#               Produced by PyCifRW module
#
#  This is a CIF file.  CIF has been adopted by the International
#  Union of Crystallography as the standard for data archiving and
#  transmission.
#
#  For information on this file format, follow the CIF links at
#  http://www.iucr.org
##########################################################################

data_image0

_cell_length_a                          9.1075
_cell_length_b                          12.506
_cell_length_c                          12.506
_cell_angle_alpha                       113.532
_cell_angle_beta                        101.397
_cell_angle_gamma                       78.6031
_symmetry_space_group_name_H-M          'P 1'
_symmetry_int_tables_number             1
loop_
  _symmetry_equiv_pos_as_xyz
         'x, y, z' 
loop_
  _atom_site_label
  _atom_site_occupancy
  _atom_site_fract_x
  _atom_site_fract_y
  _atom_site_fract_z
  _atom_site_thermal_displace_type
  _atom_site_B_iso_or_equiv
  _atom_site_type_symbol
  _atom_site_charge
         C1        1.0000    0.00340   0.86230   0.61790   Biso      1.000     C          0.11498199999999999           
         C2        1.0000    0.11910   0.16190   0.56150   Biso      1.000     C          0.659027  
         C3        1.0000    0.04720   0.09509   0.43671   Biso      1.000     C          -0.322317           
         C4        1.0000    0.15740   0.99770   0.36170   Biso      1.000     C          -0.182228           
         C5        1.0000    0.08630   0.92320   0.23880   Biso      1.000     C          -0.048859           
         C6        1.0000    0.95920   0.86410   0.24530   Biso      1.000     C          0.598494  
         C7        1.0000    0.32030   0.68550   0.37910   Biso      1.000     C          -0.45441099999999995          
         C8        1.0000    0.37320   0.38700   0.97120   Biso      1.000     C          0.659672  
         C9        1.0000    0.45510   0.45140   0.08960   Biso      1.000     C          -0.326831           
         C10       1.0000    0.03920   0.99246   0.16114   Biso      1.000     C          -0.461304           
         C11       1.0000    0.34960   0.54090   0.17350   Biso      1.000     C          -0.175505           
         C12       1.0000    0.55440   0.66910   0.29710   Biso      1.000     C          0.606988  
         C13       1.0000    0.06640   0.66540   0.53480   Biso      1.000     C          0.08254299999999999           
         C14       1.0000    0.17520   0.66450   0.62890   Biso      1.000     C          -0.18499300000000002          
         C15       1.0000    0.19650   0.76940   0.72380   Biso      1.000     C          0.098344  
         C16       1.0000    0.10940   0.87010   0.71510   Biso      1.000     C          -0.189167           
         C17       1.0000    0.51420   0.67950   0.92630   Biso      1.000     C          0.099815  
         C18       1.0000    0.40690   0.67420   0.83060   Biso      1.000     C          -0.181517           
         C19       1.0000    0.31070   0.77250   0.82850   Biso      1.000     C          0.10562   
         C20       1.0000    0.43210   0.60020   0.29680   Biso      1.000     C          -0.051147000000000005         
         C21       1.0000    0.56540   0.01770   0.86930   Biso      1.000     C          0.099245  
         C22       1.0000    0.67240   0.92500   0.87140   Biso      1.000     C          -0.18649000000000002          
         C23       1.0000    0.68930   0.82850   0.77250   Biso      1.000     C          0.10562200000000001           
         C24       1.0000    0.96080   0.16114   0.99246   Biso      1.000     C          -0.46131000000000005          
         C25       1.0000    0.88090   0.56150   0.16190   Biso      1.000     C          0.659008  
         C26       1.0000    0.95280   0.43671   0.09509   Biso      1.000     C          -0.322338           
         C27       1.0000    0.84260   0.36170   0.99770   Biso      1.000     C          -0.18220899999999998          
         C28       1.0000    0.91370   0.23880   0.92320   Biso      1.000     C          -0.048875999999999996         
         C29       1.0000    0.04080   0.24530   0.86410   Biso      1.000     C          0.598514  
         C30       1.0000    0.67970   0.37910   0.68550   Biso      1.000     C          -0.45441000000000004          
         C31       1.0000    0.62680   0.97120   0.38700   Biso      1.000     C          0.659705  
         C32       1.0000    0.54490   0.08960   0.45140   Biso      1.000     C          -0.326857           
         C33       1.0000    0.65040   0.17350   0.54090   Biso      1.000     C          -0.175505           
         C34       1.0000    0.56790   0.29680   0.60020   Biso      1.000     C          -0.051131           
         C35       1.0000    0.44560   0.29710   0.66910   Biso      1.000     C          0.6069939999999999  
         C36       1.0000    0.93360   0.53480   0.66540   Biso      1.000     C          0.082552  
         C37       1.0000    0.82480   0.62890   0.66450   Biso      1.000     C          -0.18501800000000002          
         C38       1.0000    0.80350   0.72380   0.76940   Biso      1.000     C          0.098344  
         C39       1.0000    0.89060   0.71510   0.87010   Biso      1.000     C          -0.189175           
         C40       1.0000    0.99660   0.61790   0.86230   Biso      1.000     C          0.11498299999999999           
         C41       1.0000    0.48580   0.92630   0.67950   Biso      1.000     C          0.099801  
         C42       1.0000    0.59310   0.83060   0.67420   Biso      1.000     C          -0.181509           
         C43       1.0000    0.32760   0.87140   0.92500   Biso      1.000     C          -0.18648800000000001          
         C44       1.0000    0.43460   0.86930   0.01770   Biso      1.000     C          0.099247  
         Cu1       1.0000    0.68399   0.77371   0.17371   Biso      1.000     Cu          0.769705  
         Cu2       1.0000    0.82927   0.76034   0.37128   Biso      1.000     Cu          0.769555  
         Cu3       1.0000    0.31601   0.17371   0.77371   Biso      1.000     Cu          0.769701  
         Cu4       1.0000    0.17073   0.37128   0.76034   Biso      1.000     Cu          0.7695890000000001  
         H1        1.0000    0.76090   0.35300   0.03420   Biso      1.000     H          0.101374  
         H2        1.0000    0.96150   0.05970   0.44110   Biso      1.000     H          0.14013299999999998           
         H3        1.0000    0.20410   0.94500   0.40440   Biso      1.000     H          0.10283800000000001           
         H4        1.0000    0.23910   0.03420   0.35300   Biso      1.000     H          0.101378  
         H5        1.0000    0.16690   0.85870   0.20250   Biso      1.000     H          0.10179099999999999           
         H6        1.0000    0.24420   0.64240   0.38360   Biso      1.000     H          0.152301  
         H7        1.0000    0.27050   0.74650   0.34870   Biso      1.000     H          0.155567  
         H8        1.0000    0.37470   0.72220   0.45780   Biso      1.000     H          0.142757  
         H9        1.0000    0.83310   0.20250   0.85870   Biso      1.000     H          0.10178999999999999           
         H10       1.0000    0.50940   0.39370   0.12450   Biso      1.000     H          0.125642  
         H11       1.0000    0.26910   0.50120   0.17900   Biso      1.000     H          0.10466400000000001           
         H12       1.0000    0.48120   0.53790   0.32850   Biso      1.000     H          0.084698  
         H13       1.0000    0.00610   0.15160   0.39740   Biso      1.000     H          0.12479100000000001           
         H14       1.0000    0.05320   0.59310   0.47070   Biso      1.000     H          0.095238  
         H15       1.0000    0.23480   0.59300   0.62860   Biso      1.000     H          0.130863  
         H16       1.0000    0.12260   0.94460   0.77580   Biso      1.000     H          0.125951  
         H17       1.0000    0.94440   0.93300   0.61480   Biso      1.000     H          0.095311  
         H18       1.0000    0.58040   0.61000   0.92440   Biso      1.000     H          0.09275599999999999           
         H19       1.0000    0.39950   0.60170   0.76550   Biso      1.000     H          0.12191300000000001           
         H20       1.0000    0.26490   0.94280   0.92840   Biso      1.000     H          0.126225  
         H21       1.0000    0.44080   0.94010   0.08510   Biso      1.000     H          0.088258  
         H22       1.0000    0.30080   0.60200   0.14140   Biso      1.000     H          0.107992  
         H23       1.0000    0.12500   0.02850   0.16030   Biso      1.000     H          0.145309  
         H24       1.0000    0.53120   0.49220   0.07980   Biso      1.000     H          0.142264  
         H25       1.0000    0.95610   0.05410   0.19110   Biso      1.000     H          0.143744  
         H26       1.0000    0.79590   0.40440   0.94500   Biso      1.000     H          0.102827  
         H27       1.0000    0.03850   0.44110   0.05970   Biso      1.000     H          0.140139  
         H28       1.0000    0.00570   0.94000   0.08100   Biso      1.000     H          0.139674  
         H29       1.0000    0.87500   0.16030   0.02850   Biso      1.000     H          0.145303  
         H30       1.0000    0.99430   0.08100   0.94000   Biso      1.000     H          0.13966800000000001           
         H31       1.0000    0.04390   0.19110   0.05410   Biso      1.000     H          0.143744  
         H32       1.0000    0.75580   0.38360   0.64240   Biso      1.000     H          0.152305  
         H33       1.0000    0.72950   0.34870   0.74650   Biso      1.000     H          0.15557   
         H34       1.0000    0.62530   0.45780   0.72220   Biso      1.000     H          0.14274900000000001           
         H35       1.0000    0.46880   0.07980   0.49220   Biso      1.000     H          0.142271  
         H36       1.0000    0.49060   0.12450   0.39370   Biso      1.000     H          0.125655  
         H37       1.0000    0.99390   0.39740   0.15160   Biso      1.000     H          0.12479200000000001           
         H38       1.0000    0.73090   0.17900   0.50120   Biso      1.000     H          0.10466900000000001           
         H39       1.0000    0.73510   0.92840   0.94280   Biso      1.000     H          0.126216  
         H40       1.0000    0.60050   0.76550   0.60170   Biso      1.000     H          0.12190999999999999           
         H41       1.0000    0.41960   0.92440   0.61000   Biso      1.000     H          0.09276000000000001           
         H42       1.0000    0.05560   0.61480   0.93300   Biso      1.000     H          0.095308  
         H43       1.0000    0.55920   0.08510   0.94010   Biso      1.000     H          0.088254  
         H44       1.0000    0.76520   0.62860   0.59300   Biso      1.000     H          0.13086199999999998           
         H45       1.0000    0.94680   0.47070   0.59310   Biso      1.000     H          0.095239  
         H46       1.0000    0.51880   0.32850   0.53790   Biso      1.000     H          0.0847    
         H47       1.0000    0.69920   0.14140   0.60200   Biso      1.000     H          0.10799500000000001           
         H48       1.0000    0.87740   0.77580   0.94460   Biso      1.000     H          0.125949  
         N1        1.0000    0.52970   0.77640   0.02020   Biso      1.000     N          -0.22614299999999998          
         N2        1.0000    0.97840   0.76330   0.52910   Biso      1.000     N          -0.233188           
         N3        1.0000    0.47030   0.02020   0.77640   Biso      1.000     N          -0.22614  
         N4        1.0000    0.02160   0.52910   0.76330   Biso      1.000     N          -0.23319  
         O1        1.0000    0.46590   0.21899   0.71101   Biso      1.000     O          -0.533012           
         O2        1.0000    0.03180   0.33537   0.84083   Biso      1.000     O          -0.534092           
         O3        1.0000    0.14360   0.15824   0.83776   Biso      1.000     O          -0.532571           
         O4        1.0000    0.70870   0.91374   0.44406   Biso      1.000     O          -0.5378430000000001           
         O5        1.0000    0.60620   0.93406   0.27454   Biso      1.000     O          -0.561404           
         O6        1.0000    0.33180   0.37526   0.67654   Biso      1.000     O          -0.5484140000000001           
         O7        1.0000    0.07600   0.26961   0.60559   Biso      1.000     O          -0.543    
         O8        1.0000    0.53410   0.71101   0.21899   Biso      1.000     O          -0.5330050000000001           
         O9        1.0000    0.96820   0.84083   0.33537   Biso      1.000     O          -0.534082           
         O10       1.0000    0.85640   0.83776   0.15824   Biso      1.000     O          -0.532561           
         O11       1.0000    0.29130   0.44406   0.91374   Biso      1.000     O          -0.537846           
         O12       1.0000    0.39380   0.27454   0.93406   Biso      1.000     O          -0.561384           
         O13       1.0000    0.66820   0.67654   0.37526   Biso      1.000     O          -0.5484   
         O14       1.0000    0.78500   0.61091   0.10269   Biso      1.000     O          -0.541646           
         O15       1.0000    0.21500   0.10269   0.61091   Biso      1.000     O          -0.541663           
         O16       1.0000    0.92400   0.60559   0.26961   Biso      1.000     O          -0.542981 