
##########################################################################
#               Crystallographic Information Format file
#               Produced by PyCifRW module
#
#  This is a CIF file.  CIF has been adopted by the International
#  Union of Crystallography as the standard for data archiving and
#  transmission.
#
#  For information on this file format, follow the CIF links at
#  http://www.iucr.org
##########################################################################

data_image0

_cell_length_a                          8.4085
_cell_length_b                          9.807
_cell_length_c                          21.019
_cell_angle_alpha                       90
_cell_angle_beta                        90
_cell_angle_gamma                       90
_symmetry_space_group_name_H-M          'P 1'
_symmetry_int_tables_number             1
loop_
  _symmetry_equiv_pos_as_xyz
         'x, y, z' 
loop_
  _atom_site_label
  _atom_site_occupancy
  _atom_site_fract_x
  _atom_site_fract_y
  _atom_site_fract_z
  _atom_site_thermal_displace_type
  _atom_site_B_iso_or_equiv
  _atom_site_type_symbol
  _atom_site_charge
         C1        1.0000    0.67430   0.12090   0.04494   Biso      1.000     C          0.555659  
         C2        1.0000    0.32570   0.62090   0.45506   Biso      1.000     C          0.555604  
         C3        1.0000    0.38310   0.49700   0.41887   Biso      1.000     C          0.054469000000000004          
         C4        1.0000    0.33340   0.50630   0.34882   Biso      1.000     C          0.057524  
         C5        1.0000    0.40110   0.38300   0.31292   Biso      1.000     C          0.567846  
         C6        1.0000    0.17430   0.37910   0.95506   Biso      1.000     C          0.55535   
         C7        1.0000    0.11690   0.50300   0.91887   Biso      1.000     C          0.053822  
         C8        1.0000    0.16660   0.49370   0.84882   Biso      1.000     C          0.05789400000000001           
         C9        1.0000    0.09890   0.61700   0.81292   Biso      1.000     C          0.568337  
         C10       1.0000    0.61690   0.99700   0.08113   Biso      1.000     C          0.053849  
         C11       1.0000    0.66660   0.00630   0.15118   Biso      1.000     C          0.057380999999999995          
         C12       1.0000    0.59890   0.88300   0.18708   Biso      1.000     C          0.567916  
         C13       1.0000    0.82570   0.87910   0.54494   Biso      1.000     C          0.5551729999999999  
         C14       1.0000    0.88310   0.00300   0.58113   Biso      1.000     C          0.054326  
         C15       1.0000    0.83340   0.99370   0.65118   Biso      1.000     C          0.057995000000000005          
         C16       1.0000    0.90110   0.11700   0.68708   Biso      1.000     C          0.568312  
         Cd1       1.0000    0.00436   0.39250   0.71694   Biso      1.000     Cd          0.489357  
         Cd2       1.0000    0.69393   0.66251   0.47737   Biso      1.000     Cd          0.49549799999999994           
         Cd3       1.0000    0.19393   0.83749   0.52263   Biso      1.000     Cd          0.495601  
         Cd4       1.0000    0.49564   0.60750   0.21694   Biso      1.000     Cd          0.489209  
         Cd5       1.0000    0.30607   0.16251   0.02263   Biso      1.000     Cd          0.49743100000000007           
         Cd6       1.0000    0.99564   0.89250   0.78306   Biso      1.000     Cd          0.487763  
         Cd7       1.0000    0.80607   0.33749   0.97737   Biso      1.000     Cd          0.497774  
         Cd8       1.0000    0.50436   0.10750   0.28306   Biso      1.000     Cd          0.489387  
         H1        1.0000    0.18500   0.31800   0.81350   Biso      1.000     H          0.39061599999999996           
         H2        1.0000    0.81500   0.81800   0.68650   Biso      1.000     H          0.38999   
         H3        1.0000    0.06600   0.09400   0.57900   Biso      1.000     H          0.393081  
         H4        1.0000    0.71700   0.99650   0.65370   Biso      1.000     H          0.087686  
         H5        1.0000    0.93400   0.59400   0.92100   Biso      1.000     H          0.392757  
         H6        1.0000    0.68500   0.18200   0.18650   Biso      1.000     H          0.388281  
         H7        1.0000    0.28300   0.49650   0.84630   Biso      1.000     H          0.088234  
         H8        1.0000    0.83560   0.08490   0.56230   Biso      1.000     H          0.09639   
         H9        1.0000    0.31500   0.68200   0.31350   Biso      1.000     H          0.388322  
         H10       1.0000    0.56600   0.40600   0.42100   Biso      1.000     H          0.39318400000000003           
         H11       1.0000    0.21700   0.50350   0.34630   Biso      1.000     H          0.086431  
         H12       1.0000    0.16440   0.58490   0.93770   Biso      1.000     H          0.096384  
         H13       1.0000    0.66440   0.91510   0.06230   Biso      1.000     H          0.096576  
         H14       1.0000    0.78300   0.00350   0.15370   Biso      1.000     H          0.086876  
         H15       1.0000    0.43400   0.90600   0.07900   Biso      1.000     H          0.392836  
         H16       1.0000    0.33560   0.41510   0.43770   Biso      1.000     H          0.096563  
         O1        1.0000    0.04600   0.60370   0.75775   Biso      1.000     O          -0.538573           
         O2        1.0000    0.55100   0.48780   0.42373   Biso      1.000     O          -0.5364329999999999           
         O3        1.0000    0.38720   0.63029   0.32196   Biso      1.000     O          -0.49652700000000005          
         O4        1.0000    0.39830   0.27250   0.34239   Biso      1.000     O          -0.567279           
         O5        1.0000    0.45400   0.39630   0.25775   Biso      1.000     O          -0.5375989999999999           
         O6        1.0000    0.32160   0.35720   0.95649   Biso      1.000     O          -0.560144           
         O7        1.0000    0.07870   0.30160   0.98292   Biso      1.000     O          -0.490226           
         O8        1.0000    0.94900   0.51220   0.92373   Biso      1.000     O          -0.534718           
         O9        1.0000    0.11280   0.36971   0.82196   Biso      1.000     O          -0.4969   
         O10       1.0000    0.10170   0.72750   0.84239   Biso      1.000     O          -0.567387           
         O11       1.0000    0.82160   0.14280   0.04351   Biso      1.000     O          -0.5598770000000001           
         O12       1.0000    0.95400   0.10370   0.74225   Biso      1.000     O          -0.538543           
         O13       1.0000    0.44900   0.98780   0.07627   Biso      1.000     O          -0.534941           
         O14       1.0000    0.61280   0.13029   0.17804   Biso      1.000     O          -0.496146           
         O15       1.0000    0.60170   0.77250   0.15761   Biso      1.000     O          -0.567438           
         O16       1.0000    0.54600   0.89630   0.24225   Biso      1.000     O          -0.537593           
         O17       1.0000    0.67840   0.85720   0.54351   Biso      1.000     O          -0.559766           
         O18       1.0000    0.92130   0.80160   0.51708   Biso      1.000     O          -0.488831           
         O19       1.0000    0.05100   0.01220   0.57627   Biso      1.000     O          -0.5359550000000001           
         O20       1.0000    0.88720   0.86971   0.67804   Biso      1.000     O          -0.496863           
         O21       1.0000    0.89830   0.22750   0.65761   Biso      1.000     O          -0.567211           
         O22       1.0000    0.42130   0.69840   0.48292   Biso      1.000     O          -0.488807           
         O23       1.0000    0.57870   0.19840   0.01708   Biso      1.000     O          -0.490224           
         O24       1.0000    0.17840   0.64280   0.45649   Biso      1.000     O          -0.559701 