
##########################################################################
#               Crystallographic Information Format file
#               Produced by PyCifRW module
#
#  This is a CIF file.  CIF has been adopted by the International
#  Union of Crystallography as the standard for data archiving and
#  transmission.
#
#  For information on this file format, follow the CIF links at
#  http://www.iucr.org
##########################################################################

data_image0

_cell_length_a                          9.0835
_cell_length_b                          9.0835
_cell_length_c                          15.9193
_cell_angle_alpha                       88.4173
_cell_angle_beta                        88.4173
_cell_angle_gamma                       84.7717
_symmetry_space_group_name_H-M          'P 1'
_symmetry_int_tables_number             1
loop_
  _symmetry_equiv_pos_as_xyz
         'x, y, z' 
loop_
  _atom_site_label
  _atom_site_occupancy
  _atom_site_fract_x
  _atom_site_fract_y
  _atom_site_fract_z
  _atom_site_thermal_displace_type
  _atom_site_B_iso_or_equiv
  _atom_site_type_symbol
  _atom_site_charge
         C1        1.0000    0.96720   0.35540   0.72160   Biso      1.000     C          -0.121451           
         C2        1.0000    0.24090   0.27290   0.90320   Biso      1.000     C          0.628662  
         C3        1.0000    0.97440   0.41160   0.63120   Biso      1.000     C          0.752585  
         C4        1.0000    0.85010   0.45470   0.77020   Biso      1.000     C          -0.216744           
         C5        1.0000    0.83340   0.39900   0.86150   Biso      1.000     C          -0.110724           
         C6        1.0000    0.98330   0.38430   0.90580   Biso      1.000     C          -0.214639           
         C7        1.0000    0.09880   0.28400   0.85580   Biso      1.000     C          -0.094686           
         C8        1.0000    0.72560   0.50420   0.90960   Biso      1.000     C          0.676054  
         C9        1.0000    0.11600   0.34700   0.76570   Biso      1.000     C          -0.233035           
         C10       1.0000    0.72710   0.75910   0.59680   Biso      1.000     C          0.628663  
         C11       1.0000    0.58840   0.02560   0.86880   Biso      1.000     C          0.752585  
         C12       1.0000    0.54530   0.14990   0.72980   Biso      1.000     C          -0.216745           
         C13       1.0000    0.60100   0.16660   0.63850   Biso      1.000     C          -0.110723           
         C14       1.0000    0.61570   0.01670   0.59420   Biso      1.000     C          -0.21464  
         C15       1.0000    0.71600   0.90120   0.64420   Biso      1.000     C          -0.094688           
         C16       1.0000    0.49580   0.27440   0.59040   Biso      1.000     C          0.676054  
         C17       1.0000    0.35540   0.96720   0.22160   Biso      1.000     C          -0.121451           
         C18       1.0000    0.34700   0.11600   0.26570   Biso      1.000     C          -0.233035           
         C19       1.0000    0.28400   0.09880   0.35580   Biso      1.000     C          -0.094687           
         C20       1.0000    0.27440   0.49580   0.09040   Biso      1.000     C          0.676053  
         C21       1.0000    0.75910   0.72710   0.09680   Biso      1.000     C          0.628663  
         C22       1.0000    0.02560   0.58840   0.36880   Biso      1.000     C          0.752585  
         C23       1.0000    0.14990   0.54530   0.22980   Biso      1.000     C          -0.216745           
         C24       1.0000    0.16660   0.60100   0.13850   Biso      1.000     C          -0.110723           
         C25       1.0000    0.01670   0.61570   0.09420   Biso      1.000     C          -0.21464  
         C26       1.0000    0.90120   0.71600   0.14420   Biso      1.000     C          -0.094687           
         C27       1.0000    0.88400   0.65300   0.23430   Biso      1.000     C          -0.233035           
         C28       1.0000    0.03280   0.64460   0.27840   Biso      1.000     C          -0.12145  
         C29       1.0000    0.50420   0.72560   0.40960   Biso      1.000     C          0.676053  
         C30       1.0000    0.27290   0.24090   0.40320   Biso      1.000     C          0.628663  
         C31       1.0000    0.41160   0.97440   0.13120   Biso      1.000     C          0.752585  
         C32       1.0000    0.45470   0.85010   0.27020   Biso      1.000     C          -0.216744           
         C33       1.0000    0.39900   0.83340   0.36150   Biso      1.000     C          -0.110723           
         C34       1.0000    0.38430   0.98330   0.40580   Biso      1.000     C          -0.214639           
         C35       1.0000    0.65300   0.88400   0.73430   Biso      1.000     C          -0.233035           
         C36       1.0000    0.64460   0.03280   0.77840   Biso      1.000     C          -0.121451           
         Er1       1.0000    0.47757   0.27785   0.01099   Biso      1.000     Er          2.080368  
         Er2       1.0000    0.72215   0.52243   0.48901   Biso      1.000     Er          2.080369  
         Er3       1.0000    0.52243   0.72215   0.98901   Biso      1.000     Er          2.08037   
         Er4       1.0000    0.27785   0.47757   0.51099   Biso      1.000     Er          2.08037   
         H1        1.0000    0.20530   0.69830   0.13840   Biso      1.000     H          0.096306  
         H2        1.0000    0.01830   0.48130   0.91070   Biso      1.000     H          0.117265  
         H3        1.0000    0.06420   0.18520   0.85320   Biso      1.000     H          0.097226  
         H4        1.0000    0.18900   0.28420   0.73450   Biso      1.000     H          0.116234  
         H5        1.0000    0.15020   0.44500   0.76730   Biso      1.000     H          0.116149  
         H6        1.0000    0.93470   0.25550   0.72180   Biso      1.000     H          0.098906  
         H7        1.0000    0.54410   0.24410   0.75720   Biso      1.000     H          0.11862   
         H8        1.0000    0.44490   0.12150   0.73050   Biso      1.000     H          0.12055   
         H9        1.0000    0.65750   0.02930   0.53800   Biso      1.000     H          0.115401  
         H10       1.0000    0.97070   0.34250   0.96200   Biso      1.000     H          0.115401  
         H11       1.0000    0.02930   0.65750   0.03800   Biso      1.000     H          0.115401  
         H12       1.0000    0.81480   0.93580   0.64680   Biso      1.000     H          0.097226  
         H13       1.0000    0.71580   0.81100   0.76550   Biso      1.000     H          0.116234  
         H14       1.0000    0.55500   0.84980   0.73270   Biso      1.000     H          0.116149  
         H15       1.0000    0.74450   0.06530   0.77820   Biso      1.000     H          0.098907  
         H16       1.0000    0.69830   0.20530   0.63840   Biso      1.000     H          0.096306  
         H17       1.0000    0.79470   0.30170   0.86160   Biso      1.000     H          0.096307  
         H18       1.0000    0.51870   0.98170   0.58930   Biso      1.000     H          0.117265  
         H19       1.0000    0.75590   0.45590   0.74280   Biso      1.000     H          0.11862   
         H20       1.0000    0.87850   0.55510   0.76950   Biso      1.000     H          0.120551  
         H21       1.0000    0.12150   0.44490   0.23050   Biso      1.000     H          0.12055   
         H22       1.0000    0.24410   0.54410   0.25720   Biso      1.000     H          0.11862   
         H23       1.0000    0.98170   0.51870   0.08930   Biso      1.000     H          0.117265  
         H24       1.0000    0.81100   0.71580   0.26550   Biso      1.000     H          0.116234  
         H25       1.0000    0.84980   0.55500   0.23270   Biso      1.000     H          0.116149  
         H26       1.0000    0.06530   0.74450   0.27820   Biso      1.000     H          0.098906  
         H27       1.0000    0.45590   0.75590   0.24280   Biso      1.000     H          0.11862   
         H28       1.0000    0.93580   0.81480   0.14680   Biso      1.000     H          0.097225  
         H29       1.0000    0.30170   0.79470   0.36160   Biso      1.000     H          0.096306  
         H30       1.0000    0.34250   0.97070   0.46200   Biso      1.000     H          0.115401  
         H31       1.0000    0.48130   0.01830   0.41070   Biso      1.000     H          0.117265  
         H32       1.0000    0.18520   0.06420   0.35320   Biso      1.000     H          0.097226  
         H33       1.0000    0.28420   0.18900   0.23450   Biso      1.000     H          0.116234  
         H34       1.0000    0.44500   0.15020   0.26730   Biso      1.000     H          0.116148  
         H35       1.0000    0.55510   0.87850   0.26950   Biso      1.000     H          0.12055   
         H36       1.0000    0.25550   0.93470   0.22180   Biso      1.000     H          0.098907  
         O1        1.0000    0.46010   0.09050   0.10240   Biso      1.000     O          -0.715394           
         O2        1.0000    0.16140   0.27400   0.45080   Biso      1.000     O          -0.650495           
         O3        1.0000    0.37700   0.32340   0.39940   Biso      1.000     O          -0.666851           
         O4        1.0000    0.45760   0.61740   0.45050   Biso      1.000     O          -0.789281           
         O5        1.0000    0.90950   0.53990   0.39760   Biso      1.000     O          -0.715394           
         O6        1.0000    0.14080   0.59260   0.41020   Biso      1.000     O          -0.708463           
         O7        1.0000    0.72600   0.83860   0.04920   Biso      1.000     O          -0.650495           
         O8        1.0000    0.40740   0.85920   0.08980   Biso      1.000     O          -0.708463           
         O9        1.0000    0.67660   0.62300   0.10060   Biso      1.000     O          -0.666852           
         O10       1.0000    0.63920   0.74360   0.40970   Biso      1.000     O          -0.612564           
         O11       1.0000    0.74360   0.63920   0.90970   Biso      1.000     O          -0.612564           
         O12       1.0000    0.83860   0.72600   0.54920   Biso      1.000     O          -0.650495           
         O13       1.0000    0.32340   0.37700   0.89940   Biso      1.000     O          -0.666851           
         O14       1.0000    0.27400   0.16140   0.95080   Biso      1.000     O          -0.650495           
         O15       1.0000    0.09050   0.46010   0.60240   Biso      1.000     O          -0.715394           
         O16       1.0000    0.85920   0.40740   0.58980   Biso      1.000     O          -0.708462           
         O17       1.0000    0.36080   0.25640   0.59030   Biso      1.000     O          -0.612563           
         O18       1.0000    0.54240   0.38260   0.54950   Biso      1.000     O          -0.789281           
         O19       1.0000    0.62300   0.67660   0.60060   Biso      1.000     O          -0.666851           
         O20       1.0000    0.53990   0.90950   0.89760   Biso      1.000     O          -0.715395           
         O21       1.0000    0.59260   0.14080   0.91020   Biso      1.000     O          -0.708462           
         O22       1.0000    0.38260   0.54240   0.04950   Biso      1.000     O          -0.78928  
         O23       1.0000    0.61740   0.45760   0.95050   Biso      1.000     O          -0.789281           
         O24       1.0000    0.25640   0.36080   0.09030   Biso      1.000     O          -0.612563 