
##########################################################################
#               Crystallographic Information Format file
#               Produced by PyCifRW module
#
#  This is a CIF file.  CIF has been adopted by the International
#  Union of Crystallography as the standard for data archiving and
#  transmission.
#
#  For information on this file format, follow the CIF links at
#  http://www.iucr.org
##########################################################################

data_image0

_cell_length_a                          9.0757
_cell_length_b                          9.0757
_cell_length_c                          15.922
_cell_angle_alpha                       88.4586
_cell_angle_beta                        88.4586
_cell_angle_gamma                       84.8901
_symmetry_space_group_name_H-M          'P 1'
_symmetry_int_tables_number             1
loop_
  _symmetry_equiv_pos_as_xyz
         'x, y, z' 
loop_
  _atom_site_label
  _atom_site_occupancy
  _atom_site_fract_x
  _atom_site_fract_y
  _atom_site_fract_z
  _atom_site_thermal_displace_type
  _atom_site_B_iso_or_equiv
  _atom_site_type_symbol
  _atom_site_charge
         C1        1.0000    0.88380   0.48440   0.40650   Biso      1.000     C          -0.027363           
         C2        1.0000    0.21440   0.40160   0.64440   Biso      1.000     C          -0.086875           
         C3        1.0000    0.15400   0.38320   0.73550   Biso      1.000     C          -0.012325           
         C4        1.0000    0.52750   0.09010   0.37040   Biso      1.000     C          0.726467  
         C5        1.0000    0.77250   0.99610   0.09140   Biso      1.000     C          0.640408  
         C6        1.0000    0.25740   0.22580   0.09760   Biso      1.000     C          0.5895699999999999  
         C7        1.0000    0.53300   0.14540   0.27850   Biso      1.000     C          -0.12503599999999998          
         C8        1.0000    0.11620   0.51560   0.59350   Biso      1.000     C          -0.027363           
         C9        1.0000    0.64990   0.04510   0.23000   Biso      1.000     C          -0.025727999999999997         
         C10       1.0000    0.51560   0.11620   0.09350   Biso      1.000     C          -0.027363           
         C11       1.0000    0.40160   0.21440   0.14440   Biso      1.000     C          -0.086875           
         C12       1.0000    0.38320   0.15400   0.23550   Biso      1.000     C          -0.012326           
         C13       1.0000    0.90990   0.47250   0.12960   Biso      1.000     C          0.726467  
         C14       1.0000    0.00390   0.22750   0.40860   Biso      1.000     C          0.640408  
         C15       1.0000    0.77420   0.74260   0.40240   Biso      1.000     C          0.589571  
         C16       1.0000    0.66640   0.09900   0.13890   Biso      1.000     C          -0.114194           
         C17       1.0000    0.09900   0.66640   0.63890   Biso      1.000     C          -0.114194           
         C18       1.0000    0.04510   0.64990   0.73000   Biso      1.000     C          -0.025727999999999997         
         C19       1.0000    0.14540   0.53300   0.77850   Biso      1.000     C          -0.12503599999999998          
         C20       1.0000    0.84600   0.61680   0.26450   Biso      1.000     C          -0.012325           
         C21       1.0000    0.78560   0.59840   0.35560   Biso      1.000     C          -0.086875           
         C22       1.0000    0.90100   0.33360   0.36110   Biso      1.000     C          -0.114194           
         C23       1.0000    0.47250   0.90990   0.62960   Biso      1.000     C          0.726467  
         C24       1.0000    0.22750   0.00390   0.90860   Biso      1.000     C          0.640408  
         C25       1.0000    0.74260   0.77420   0.90240   Biso      1.000     C          0.5895699999999999  
         C26       1.0000    0.46700   0.85460   0.72150   Biso      1.000     C          -0.12503599999999998          
         C27       1.0000    0.35010   0.95490   0.77000   Biso      1.000     C          -0.025729000000000002         
         C28       1.0000    0.33360   0.90100   0.86110   Biso      1.000     C          -0.114194           
         C29       1.0000    0.48440   0.88380   0.90650   Biso      1.000     C          -0.027363           
         C30       1.0000    0.59840   0.78560   0.85560   Biso      1.000     C          -0.086875           
         C31       1.0000    0.61680   0.84600   0.76450   Biso      1.000     C          -0.012326           
         C32       1.0000    0.09010   0.52750   0.87040   Biso      1.000     C          0.726467  
         C33       1.0000    0.99610   0.77250   0.59140   Biso      1.000     C          0.640408  
         C34       1.0000    0.22580   0.25740   0.59760   Biso      1.000     C          0.5895699999999999  
         C35       1.0000    0.85460   0.46700   0.22150   Biso      1.000     C          -0.12503599999999998          
         C36       1.0000    0.95490   0.35010   0.27000   Biso      1.000     C          -0.025727999999999997         
         Er1       1.0000    0.22202   0.02240   0.48921   Biso      1.000     Er          2.092468  
         Er2       1.0000    0.77798   0.97760   0.51079   Biso      1.000     Er          2.09247   
         Er3       1.0000    0.97760   0.77798   0.01079   Biso      1.000     Er          2.092469  
         Er4       1.0000    0.02240   0.22202   0.98921   Biso      1.000     Er          2.092469  
         H1        1.0000    0.94086   0.49639   0.46855   Biso      1.000     H          0.129717  
         H2        1.0000    0.05430   0.28927   0.23679   Biso      1.000     H          0.143258  
         H3        1.0000    0.28148   0.11830   0.27144   Biso      1.000     H          0.13819800000000002           
         H4        1.0000    0.50361   0.05914   0.03145   Biso      1.000     H          0.129717  
         H5        1.0000    0.71073   0.94570   0.26321   Biso      1.000     H          0.143258  
         H6        1.0000    0.11830   0.28148   0.77144   Biso      1.000     H          0.13819800000000002           
         H7        1.0000    0.05914   0.50361   0.53145   Biso      1.000     H          0.129717  
         H8        1.0000    0.94570   0.71073   0.76321   Biso      1.000     H          0.143258  
         H9        1.0000    0.71852   0.88170   0.72856   Biso      1.000     H          0.13819800000000002           
         H10       1.0000    0.49639   0.94086   0.96855   Biso      1.000     H          0.129717  
         H11       1.0000    0.28927   0.05430   0.73679   Biso      1.000     H          0.143259  
         H12       1.0000    0.88170   0.71852   0.22856   Biso      1.000     H          0.13819800000000002           
         O1        1.0000    0.63930   0.09430   0.41210   Biso      1.000     O          -0.6766949999999999           
         O2        1.0000    0.36070   0.90570   0.58790   Biso      1.000     O          -0.6766949999999999           
         O3        1.0000    0.58970   0.95890   0.60030   Biso      1.000     O          -0.72723  
         O4        1.0000    0.24320   0.14100   0.91170   Biso      1.000     O          -0.610837           
         O5        1.0000    0.11570   0.95610   0.95000   Biso      1.000     O          -0.779746           
         O6        1.0000    0.82450   0.87630   0.89920   Biso      1.000     O          -0.657222           
         O7        1.0000    0.77550   0.66270   0.95120   Biso      1.000     O          -0.616837           
         O8        1.0000    0.09430   0.63930   0.91210   Biso      1.000     O          -0.6766949999999999           
         O9        1.0000    0.04110   0.41030   0.89970   Biso      1.000     O          -0.727229           
         O10       1.0000    0.85900   0.75680   0.58830   Biso      1.000     O          -0.610837           
         O11       1.0000    0.04390   0.88430   0.55000   Biso      1.000     O          -0.779746           
         O12       1.0000    0.66270   0.77550   0.45120   Biso      1.000     O          -0.616837           
         O13       1.0000    0.87630   0.82450   0.39920   Biso      1.000     O          -0.657222           
         O14       1.0000    0.95610   0.11570   0.45000   Biso      1.000     O          -0.779746           
         O15       1.0000    0.14100   0.24320   0.41170   Biso      1.000     O          -0.610837           
         O16       1.0000    0.95890   0.58970   0.10030   Biso      1.000     O          -0.727229           
         O17       1.0000    0.90570   0.36070   0.08790   Biso      1.000     O          -0.6766949999999999           
         O18       1.0000    0.22450   0.33730   0.04880   Biso      1.000     O          -0.616837           
         O19       1.0000    0.12370   0.17550   0.60080   Biso      1.000     O          -0.657222           
         O20       1.0000    0.88430   0.04390   0.05000   Biso      1.000     O          -0.779746           
         O21       1.0000    0.75680   0.85900   0.08830   Biso      1.000     O          -0.610837           
         O22       1.0000    0.41030   0.04110   0.39970   Biso      1.000     O          -0.727229           
         O23       1.0000    0.33730   0.22450   0.54880   Biso      1.000     O          -0.616837           
         O24       1.0000    0.17550   0.12370   0.10080   Biso      1.000     O          -0.657222 