
##########################################################################
#               Crystallographic Information Format file
#               Produced by PyCifRW module
#
#  This is a CIF file.  CIF has been adopted by the International
#  Union of Crystallography as the standard for data archiving and
#  transmission.
#
#  For information on this file format, follow the CIF links at
#  http://www.iucr.org
##########################################################################

data_image0

_cell_length_a                          24.5711
_cell_length_b                          13.2963
_cell_length_c                          14.7313
_cell_angle_alpha                       90
_cell_angle_beta                        96.735
_cell_angle_gamma                       90
_symmetry_space_group_name_H-M          'P 1'
_symmetry_int_tables_number             1
loop_
  _symmetry_equiv_pos_as_xyz
         'x, y, z' 
loop_
  _atom_site_label
  _atom_site_occupancy
  _atom_site_fract_x
  _atom_site_fract_y
  _atom_site_fract_z
  _atom_site_thermal_displace_type
  _atom_site_B_iso_or_equiv
  _atom_site_type_symbol
  _atom_site_charge
         C1        1.0000    0.63000   0.59910   0.83660   Biso      1.000     C          0.089887  
         C2        1.0000    0.01150   0.73800   0.38470   Biso      1.000     C          -0.096398           
         C3        1.0000    0.15300   0.14490   0.76360   Biso      1.000     C          -0.134866           
         C4        1.0000    0.13000   0.09910   0.83660   Biso      1.000     C          0.089888  
         C5        1.0000    0.16080   0.02400   0.88490   Biso      1.000     C          -0.156576           
         C6        1.0000    0.24800   0.92640   0.92320   Biso      1.000     C          0.595492  
         C7        1.0000    0.21380   0.00240   0.86730   Biso      1.000     C          0.002747  
         C8        1.0000    0.05980   0.76860   0.35530   Biso      1.000     C          -0.127663           
         C9        1.0000    0.23580   0.05190   0.79760   Biso      1.000     C          -0.092586           
         C10       1.0000    0.20490   0.12140   0.74380   Biso      1.000     C          -0.016447           
         C11       1.0000    0.22690   0.17240   0.66350   Biso      1.000     C          0.610133  
         C12       1.0000    0.27310   0.32760   0.33650   Biso      1.000     C          0.610132  
         C13       1.0000    0.29510   0.37860   0.25620   Biso      1.000     C          -0.016451           
         C14       1.0000    0.26420   0.44810   0.20240   Biso      1.000     C          -0.092587           
         C15       1.0000    0.28620   0.49760   0.13270   Biso      1.000     C          0.002746  
         C16       1.0000    0.55980   0.73140   0.85530   Biso      1.000     C          -0.127669           
         C17       1.0000    0.25200   0.57360   0.07680   Biso      1.000     C          0.595491  
         C18       1.0000    0.51150   0.76200   0.88470   Biso      1.000     C          -0.096392           
         C19       1.0000    0.42630   0.72810   0.96100   Biso      1.000     C          0.558848  
         C20       1.0000    0.47680   0.69570   0.92000   Biso      1.000     C          -0.002424           
         C21       1.0000    0.33920   0.47600   0.11510   Biso      1.000     C          -0.156573           
         C22       1.0000    0.49110   0.59440   0.92160   Biso      1.000     C          -0.101272           
         C23       1.0000    0.54010   0.56350   0.89410   Biso      1.000     C          -0.135716           
         C24       1.0000    0.57600   0.63110   0.86130   Biso      1.000     C          0.095689  
         C25       1.0000    0.37000   0.40090   0.16340   Biso      1.000     C          0.089887  
         C26       1.0000    0.65300   0.64490   0.76360   Biso      1.000     C          -0.134866           
         C27       1.0000    0.20490   0.87860   0.24380   Biso      1.000     C          -0.016452           
         C28       1.0000    0.34700   0.35510   0.23640   Biso      1.000     C          -0.134862           
         C29       1.0000    0.66080   0.52400   0.88490   Biso      1.000     C          -0.156576           
         C30       1.0000    0.74800   0.42640   0.92320   Biso      1.000     C          0.595493  
         C31       1.0000    0.07600   0.13110   0.86130   Biso      1.000     C          0.095687  
         C32       1.0000    0.04010   0.06350   0.89410   Biso      1.000     C          -0.135716           
         C33       1.0000    0.92630   0.77190   0.46100   Biso      1.000     C          0.558852  
         C34       1.0000    0.99110   0.09440   0.92160   Biso      1.000     C          -0.101271           
         C35       1.0000    0.23580   0.94810   0.29760   Biso      1.000     C          -0.092586           
         C36       1.0000    0.55980   0.26860   0.35530   Biso      1.000     C          -0.127669           
         C37       1.0000    0.51150   0.23800   0.38470   Biso      1.000     C          -0.096392           
         C38       1.0000    0.42630   0.27190   0.46100   Biso      1.000     C          0.558848  
         C39       1.0000    0.47680   0.30430   0.42000   Biso      1.000     C          -0.002426           
         C40       1.0000    0.21380   0.99760   0.36730   Biso      1.000     C          0.002746  
         C41       1.0000    0.49110   0.40560   0.42160   Biso      1.000     C          -0.101273           
         C42       1.0000    0.24800   0.07360   0.42320   Biso      1.000     C          0.595492  
         C43       1.0000    0.54010   0.43650   0.39410   Biso      1.000     C          -0.135716           
         C44       1.0000    0.57600   0.36890   0.36130   Biso      1.000     C          0.095688  
         C45       1.0000    0.16080   0.97600   0.38490   Biso      1.000     C          -0.156573           
         C46       1.0000    0.65300   0.35510   0.26360   Biso      1.000     C          -0.134866           
         C47       1.0000    0.63000   0.40090   0.33660   Biso      1.000     C          0.089887  
         C48       1.0000    0.66080   0.47600   0.38490   Biso      1.000     C          -0.156576           
         C49       1.0000    0.71380   0.50240   0.86730   Biso      1.000     C          0.002747  
         C50       1.0000    0.74800   0.57360   0.42320   Biso      1.000     C          0.595493  
         C51       1.0000    0.13000   0.90090   0.33660   Biso      1.000     C          0.089888  
         C52       1.0000    0.73580   0.44810   0.29760   Biso      1.000     C          -0.092591           
         C53       1.0000    0.70490   0.37860   0.24380   Biso      1.000     C          -0.016446           
         C54       1.0000    0.72690   0.32760   0.16350   Biso      1.000     C          0.610134  
         C55       1.0000    0.15300   0.85510   0.26360   Biso      1.000     C          -0.134861           
         C56       1.0000    0.07600   0.86890   0.36130   Biso      1.000     C          0.095687  
         C57       1.0000    0.04010   0.93650   0.39410   Biso      1.000     C          -0.135716           
         C58       1.0000    0.99110   0.90560   0.42160   Biso      1.000     C          -0.101271           
         C59       1.0000    0.94020   0.76860   0.14470   Biso      1.000     C          -0.127669           
         C60       1.0000    0.05980   0.23140   0.85530   Biso      1.000     C          -0.127668           
         C61       1.0000    0.01150   0.26200   0.88470   Biso      1.000     C          -0.096393           
         C62       1.0000    0.92630   0.22810   0.96100   Biso      1.000     C          0.558851  
         C63       1.0000    0.97680   0.19570   0.92000   Biso      1.000     C          -0.002423           
         C64       1.0000    0.97680   0.80430   0.42000   Biso      1.000     C          -0.002422           
         C65       1.0000    0.71380   0.49760   0.36730   Biso      1.000     C          0.002749  
         C66       1.0000    0.73580   0.55190   0.79760   Biso      1.000     C          -0.092588           
         C67       1.0000    0.22690   0.82760   0.16350   Biso      1.000     C          0.610133  
         C68       1.0000    0.72690   0.67240   0.66350   Biso      1.000     C          0.610131  
         C69       1.0000    0.77310   0.17240   0.83650   Biso      1.000     C          0.610133  
         C70       1.0000    0.79510   0.87860   0.25620   Biso      1.000     C          -0.016452           
         C71       1.0000    0.76420   0.94810   0.20240   Biso      1.000     C          -0.092587           
         C72       1.0000    0.70490   0.62140   0.74380   Biso      1.000     C          -0.016446           
         C73       1.0000    0.75200   0.07360   0.07680   Biso      1.000     C          0.595491  
         C74       1.0000    0.83920   0.97600   0.11510   Biso      1.000     C          -0.156577           
         C75       1.0000    0.44020   0.73140   0.64470   Biso      1.000     C          -0.127669           
         C76       1.0000    0.87000   0.90090   0.16340   Biso      1.000     C          0.089888  
         C77       1.0000    0.48850   0.76200   0.61530   Biso      1.000     C          -0.096392           
         C78       1.0000    0.57370   0.72810   0.53900   Biso      1.000     C          0.558842  
         C79       1.0000    0.52320   0.69570   0.58000   Biso      1.000     C          -0.002423           
         C80       1.0000    0.84700   0.85510   0.23640   Biso      1.000     C          -0.134861           
         C81       1.0000    0.50890   0.59440   0.57840   Biso      1.000     C          -0.101272           
         C82       1.0000    0.45990   0.56350   0.60590   Biso      1.000     C          -0.135717           
         C83       1.0000    0.42400   0.63110   0.63870   Biso      1.000     C          0.095689  
         C84       1.0000    0.92400   0.86890   0.13870   Biso      1.000     C          0.095687  
         C85       1.0000    0.34700   0.64490   0.73640   Biso      1.000     C          -0.134866           
         C86       1.0000    0.37000   0.59910   0.66340   Biso      1.000     C          0.089888  
         C87       1.0000    0.95990   0.93650   0.10590   Biso      1.000     C          -0.135716           
         C88       1.0000    0.33920   0.52400   0.61510   Biso      1.000     C          -0.156575           
         C89       1.0000    0.25200   0.42640   0.57680   Biso      1.000     C          0.595492  
         C90       1.0000    0.28620   0.50240   0.63270   Biso      1.000     C          0.002746  
         C91       1.0000    0.26420   0.55190   0.70240   Biso      1.000     C          -0.092585           
         C92       1.0000    0.29510   0.62140   0.75620   Biso      1.000     C          -0.016447           
         C93       1.0000    0.27310   0.67240   0.83650   Biso      1.000     C          0.610134  
         C94       1.0000    0.00890   0.90560   0.07840   Biso      1.000     C          -0.10127  
         C95       1.0000    0.02320   0.80430   0.08000   Biso      1.000     C          -0.002427           
         C96       1.0000    0.07370   0.77190   0.03900   Biso      1.000     C          0.558854  
         C97       1.0000    0.98850   0.73800   0.11530   Biso      1.000     C          -0.096389           
         C98       1.0000    0.79510   0.12140   0.75620   Biso      1.000     C          -0.016451           
         C99       1.0000    0.76420   0.05190   0.70240   Biso      1.000     C          -0.092589           
         C100      1.0000    0.78620   0.99760   0.13270   Biso      1.000     C          0.002749  
         C101      1.0000    0.78620   0.00240   0.63270   Biso      1.000     C          0.002746  
         C102      1.0000    0.95990   0.06350   0.60590   Biso      1.000     C          -0.13572  
         C103      1.0000    0.77310   0.82760   0.33650   Biso      1.000     C          0.610133  
         C104      1.0000    0.02320   0.19570   0.58000   Biso      1.000     C          -0.002428           
         C105      1.0000    0.07370   0.22810   0.53900   Biso      1.000     C          0.558856  
         C106      1.0000    0.98850   0.26200   0.61530   Biso      1.000     C          -0.096394           
         C107      1.0000    0.92400   0.13110   0.63870   Biso      1.000     C          0.095688  
         C108      1.0000    0.48850   0.23800   0.11530   Biso      1.000     C          -0.096397           
         C109      1.0000    0.94020   0.23140   0.64470   Biso      1.000     C          -0.127664           
         C110      1.0000    0.57370   0.27190   0.03900   Biso      1.000     C          0.558846  
         C111      1.0000    0.00890   0.09440   0.57840   Biso      1.000     C          -0.10127  
         C112      1.0000    0.84700   0.14490   0.73640   Biso      1.000     C          -0.134863           
         C113      1.0000    0.52320   0.30430   0.08000   Biso      1.000     C          -0.002423           
         C114      1.0000    0.50890   0.40560   0.07840   Biso      1.000     C          -0.101272           
         C115      1.0000    0.45990   0.43650   0.10590   Biso      1.000     C          -0.135717           
         C116      1.0000    0.87000   0.09910   0.66340   Biso      1.000     C          0.089886  
         C117      1.0000    0.42400   0.36890   0.13870   Biso      1.000     C          0.095688  
         C118      1.0000    0.83920   0.02400   0.61510   Biso      1.000     C          -0.156573           
         C119      1.0000    0.75200   0.92640   0.57680   Biso      1.000     C          0.595493  
         C120      1.0000    0.44020   0.26860   0.14470   Biso      1.000     C          -0.127663           
         Eu1       1.0000    0.17123   0.70750   0.96980   Biso      1.000     Eu          1.370275  
         Eu2       1.0000    0.67123   0.79250   0.46980   Biso      1.000     Eu          1.370274  
         Eu3       1.0000    0.32877   0.79250   0.03020   Biso      1.000     Eu          1.370275  
         Eu4       1.0000    0.32877   0.20750   0.53020   Biso      1.000     Eu          1.370276  
         Eu5       1.0000    0.17123   0.29250   0.46980   Biso      1.000     Eu          1.370274  
         Eu6       1.0000    0.67123   0.20750   0.96980   Biso      1.000     Eu          1.370275  
         Eu7       1.0000    0.82877   0.70750   0.53020   Biso      1.000     Eu          1.370274  
         Eu8       1.0000    0.82877   0.29250   0.03020   Biso      1.000     Eu          1.370277  
         H1        1.0000    0.00200   0.67030   0.38060   Biso      1.000     H          0.122888  
         H2        1.0000    0.99800   0.67030   0.11940   Biso      1.000     H          0.122887  
         H3        1.0000    0.36750   0.30780   0.27230   Biso      1.000     H          0.12334   
         H4        1.0000    0.27160   0.96160   0.28670   Biso      1.000     H          0.130449  
         H5        1.0000    0.72840   0.96160   0.21330   Biso      1.000     H          0.13045   
         H6        1.0000    0.03260   0.95300   0.05840   Biso      1.000     H          0.115423  
         H7        1.0000    0.45070   0.50430   0.10230   Biso      1.000     H          0.118194  
         H8        1.0000    0.08210   0.72160   0.33090   Biso      1.000     H          0.122698  
         H9        1.0000    0.04930   0.00430   0.39770   Biso      1.000     H          0.118194  
         H10       1.0000    0.13250   0.80780   0.22770   Biso      1.000     H          0.12334   
         H11       1.0000    0.95070   0.00430   0.10230   Biso      1.000     H          0.118194  
         H12       1.0000    0.85450   0.01220   0.07040   Biso      1.000     H          0.132358  
         H13       1.0000    0.41790   0.22160   0.16910   Biso      1.000     H          0.122698  
         H14       1.0000    0.14550   0.01220   0.42960   Biso      1.000     H          0.132357  
         H15       1.0000    0.35450   0.51220   0.07040   Biso      1.000     H          0.132357  
         H16       1.0000    0.96740   0.95300   0.44160   Biso      1.000     H          0.115424  
         H17       1.0000    0.22840   0.46160   0.21330   Biso      1.000     H          0.13045   
         H18       1.0000    0.49800   0.17030   0.11940   Biso      1.000     H          0.122887  
         H19       1.0000    0.53260   0.45300   0.05840   Biso      1.000     H          0.115423  
         H20       1.0000    0.86750   0.80780   0.27230   Biso      1.000     H          0.12334   
         H21       1.0000    0.08210   0.27840   0.83090   Biso      1.000     H          0.122698  
         H22       1.0000    0.64550   0.48780   0.92960   Biso      1.000     H          0.132357  
         H23       1.0000    0.50200   0.82970   0.88060   Biso      1.000     H          0.122888  
         H24       1.0000    0.46740   0.54700   0.94160   Biso      1.000     H          0.115423  
         H25       1.0000    0.54930   0.49570   0.89770   Biso      1.000     H          0.118194  
         H26       1.0000    0.63250   0.69220   0.72770   Biso      1.000     H          0.12334   
         H27       1.0000    0.77160   0.53840   0.78670   Biso      1.000     H          0.13045   
         H28       1.0000    0.91790   0.27840   0.66910   Biso      1.000     H          0.122699  
         H29       1.0000    0.99800   0.32970   0.61940   Biso      1.000     H          0.122887  
         H30       1.0000    0.03260   0.04700   0.55840   Biso      1.000     H          0.115423  
         H31       1.0000    0.95070   0.99570   0.60230   Biso      1.000     H          0.118194  
         H32       1.0000    0.86750   0.19220   0.77230   Biso      1.000     H          0.123341  
         H33       1.0000    0.85450   0.98780   0.57040   Biso      1.000     H          0.132358  
         H34       1.0000    0.72840   0.03840   0.71330   Biso      1.000     H          0.130451  
         H35       1.0000    0.41790   0.77840   0.66910   Biso      1.000     H          0.122698  
         H36       1.0000    0.49800   0.82970   0.61940   Biso      1.000     H          0.122887  
         H37       1.0000    0.53260   0.54700   0.55840   Biso      1.000     H          0.115424  
         H38       1.0000    0.45070   0.49570   0.60230   Biso      1.000     H          0.118194  
         H39       1.0000    0.36750   0.69220   0.77230   Biso      1.000     H          0.12334   
         H40       1.0000    0.35450   0.48780   0.57040   Biso      1.000     H          0.132358  
         H41       1.0000    0.22840   0.53840   0.71330   Biso      1.000     H          0.13045   
         H42       1.0000    0.58210   0.77840   0.83090   Biso      1.000     H          0.122699  
         H43       1.0000    0.27160   0.03840   0.78670   Biso      1.000     H          0.130449  
         H44       1.0000    0.91790   0.72160   0.16910   Biso      1.000     H          0.122698  
         H45       1.0000    0.13250   0.19220   0.72770   Biso      1.000     H          0.12334   
         H46       1.0000    0.58210   0.22160   0.33090   Biso      1.000     H          0.122699  
         H47       1.0000    0.50200   0.17030   0.38060   Biso      1.000     H          0.122888  
         H48       1.0000    0.46740   0.45300   0.44160   Biso      1.000     H          0.115423  
         H49       1.0000    0.54930   0.50430   0.39770   Biso      1.000     H          0.118194  
         H50       1.0000    0.63250   0.30780   0.22770   Biso      1.000     H          0.12334   
         H51       1.0000    0.64550   0.51220   0.42960   Biso      1.000     H          0.132358  
         H52       1.0000    0.14550   0.98780   0.92960   Biso      1.000     H          0.132358  
         H53       1.0000    0.00200   0.32970   0.88060   Biso      1.000     H          0.122888  
         H54       1.0000    0.96740   0.04700   0.94160   Biso      1.000     H          0.115424  
         H55       1.0000    0.04930   0.99570   0.89770   Biso      1.000     H          0.118194  
         H56       1.0000    0.77160   0.46160   0.28670   Biso      1.000     H          0.130451  
         O1        1.0000    0.19550   0.23430   0.62060   Biso      1.000     O          -0.525683           
         O2        1.0000    0.22569   0.35070   0.35390   Biso      1.000     O          -0.591138           
         O3        1.0000    0.08690   0.31970   0.54380   Biso      1.000     O          -0.542749           
         O4        1.0000    0.10060   0.16600   0.50070   Biso      1.000     O          -0.558897           
         O5        1.0000    0.77490   0.85300   0.54240   Biso      1.000     O          -0.596164           
         O6        1.0000    0.70160   0.93960   0.56240   Biso      1.000     O          -0.509849           
         O7        1.0000    0.72569   0.14930   0.85390   Biso      1.000     O          -0.59114  
         O8        1.0000    0.80450   0.23430   0.87940   Biso      1.000     O          -0.525683           
         O9        1.0000    0.30450   0.26570   0.37940   Biso      1.000     O          -0.525682           
         O10       1.0000    0.89940   0.16600   0.99930   Biso      1.000     O          -0.558895           
         O11       1.0000    0.08690   0.68030   0.04380   Biso      1.000     O          -0.542749           
         O12       1.0000    0.91310   0.31970   0.95620   Biso      1.000     O          -0.542748           
         O13       1.0000    0.27431   0.85070   0.14610   Biso      1.000     O          -0.591139           
         O14       1.0000    0.91310   0.68030   0.45620   Biso      1.000     O          -0.542746           
         O15       1.0000    0.89940   0.83400   0.49930   Biso      1.000     O          -0.558896           
         O16       1.0000    0.58690   0.81970   0.54380   Biso      1.000     O          -0.542735           
         O17       1.0000    0.60060   0.66600   0.50070   Biso      1.000     O          -0.558893           
         O18       1.0000    0.27490   0.35300   0.54240   Biso      1.000     O          -0.596165           
         O19       1.0000    0.20160   0.43960   0.56240   Biso      1.000     O          -0.509848           
         O20       1.0000    0.22569   0.64930   0.85390   Biso      1.000     O          -0.591141           
         O21       1.0000    0.30450   0.73430   0.87940   Biso      1.000     O          -0.525684           
         O22       1.0000    0.19550   0.76570   0.12060   Biso      1.000     O          -0.525683           
         O23       1.0000    0.10060   0.83400   0.00070   Biso      1.000     O          -0.558897           
         O24       1.0000    0.77490   0.14700   0.04240   Biso      1.000     O          -0.596164           
         O25       1.0000    0.70160   0.06040   0.06240   Biso      1.000     O          -0.509847           
         O26       1.0000    0.29840   0.93960   0.93760   Biso      1.000     O          -0.509849           
         O27       1.0000    0.22510   0.85300   0.95760   Biso      1.000     O          -0.596165           
         O28       1.0000    0.58690   0.18030   0.04380   Biso      1.000     O          -0.542739           
         O29       1.0000    0.69550   0.26570   0.12060   Biso      1.000     O          -0.525685           
         O30       1.0000    0.77431   0.35070   0.14610   Biso      1.000     O          -0.591142           
         O31       1.0000    0.29840   0.06040   0.43760   Biso      1.000     O          -0.509849           
         O32       1.0000    0.79840   0.56040   0.43760   Biso      1.000     O          -0.509848           
         O33       1.0000    0.41310   0.81970   0.95620   Biso      1.000     O          -0.542743           
         O34       1.0000    0.39940   0.66600   0.99930   Biso      1.000     O          -0.558895           
         O35       1.0000    0.72510   0.35300   0.95760   Biso      1.000     O          -0.596165           
         O36       1.0000    0.79840   0.43960   0.93760   Biso      1.000     O          -0.509848           
         O37       1.0000    0.77431   0.64930   0.64610   Biso      1.000     O          -0.591137           
         O38       1.0000    0.69550   0.73430   0.62060   Biso      1.000     O          -0.525682           
         O39       1.0000    0.72510   0.64700   0.45760   Biso      1.000     O          -0.596165           
         O40       1.0000    0.39940   0.33400   0.49930   Biso      1.000     O          -0.558895           
         O41       1.0000    0.41310   0.18030   0.45620   Biso      1.000     O          -0.54274  
         O42       1.0000    0.60060   0.33400   0.00070   Biso      1.000     O          -0.558893           
         O43       1.0000    0.27490   0.64700   0.04240   Biso      1.000     O          -0.596164           
         O44       1.0000    0.20160   0.56040   0.06240   Biso      1.000     O          -0.509847           
         O45       1.0000    0.80450   0.76570   0.37940   Biso      1.000     O          -0.525683           
         O46       1.0000    0.72569   0.85070   0.35390   Biso      1.000     O          -0.591141           
         O47       1.0000    0.27431   0.14930   0.64610   Biso      1.000     O          -0.591141           
         O48       1.0000    0.22510   0.14700   0.45760   Biso      1.000     O          -0.596164 