
##########################################################################
#               Crystallographic Information Format file
#               Produced by PyCifRW module
#
#  This is a CIF file.  CIF has been adopted by the International
#  Union of Crystallography as the standard for data archiving and
#  transmission.
#
#  For information on this file format, follow the CIF links at
#  http://www.iucr.org
##########################################################################

data_image0

_cell_length_a                          24.8443
_cell_length_b                          12.8836
_cell_length_c                          15.0538
_cell_angle_alpha                       90
_cell_angle_beta                        96.709
_cell_angle_gamma                       90
_symmetry_space_group_name_H-M          'P 1'
_symmetry_int_tables_number             1
loop_
  _symmetry_equiv_pos_as_xyz
         'x, y, z' 
loop_
  _atom_site_label
  _atom_site_occupancy
  _atom_site_fract_x
  _atom_site_fract_y
  _atom_site_fract_z
  _atom_site_thermal_displace_type
  _atom_site_B_iso_or_equiv
  _atom_site_type_symbol
  _atom_site_charge
         C1        1.0000    0.62865   0.60360   0.83510   Biso      1.000     C          0.082375  
         C2        1.0000    0.01030   0.73030   0.38380   Biso      1.000     C          -0.099964           
         C3        1.0000    0.15035   0.15050   0.76350   Biso      1.000     C          -0.145859           
         C4        1.0000    0.12865   0.10360   0.83510   Biso      1.000     C          0.082375  
         C5        1.0000    0.16011   0.03060   0.88560   Biso      1.000     C          -0.165154           
         C6        1.0000    0.24784   0.93610   0.92700   Biso      1.000     C          0.640979  
         C7        1.0000    0.21300   0.00970   0.86890   Biso      1.000     C          -0.018012           
         C8        1.0000    0.05850   0.76120   0.35360   Biso      1.000     C          -0.147767           
         C9        1.0000    0.23403   0.06010   0.79960   Biso      1.000     C          -0.119761           
         C10       1.0000    0.20284   0.12780   0.74510   Biso      1.000     C          -0.021834           
         C11       1.0000    0.22450   0.17850   0.66590   Biso      1.000     C          0.66728   
         C12       1.0000    0.27550   0.32150   0.33410   Biso      1.000     C          0.667281  
         C13       1.0000    0.29716   0.37220   0.25490   Biso      1.000     C          -0.021841           
         C14       1.0000    0.26597   0.43990   0.20040   Biso      1.000     C          -0.119757           
         C15       1.0000    0.28700   0.49030   0.13110   Biso      1.000     C          -0.01801  
         C16       1.0000    0.55850   0.73880   0.85360   Biso      1.000     C          -0.147769           
         C17       1.0000    0.25216   0.56390   0.07300   Biso      1.000     C          0.640979  
         C18       1.0000    0.51030   0.76970   0.88380   Biso      1.000     C          -0.099963           
         C19       1.0000    0.42824   0.73460   0.96170   Biso      1.000     C          0.585374  
         C20       1.0000    0.47780   0.70070   0.92000   Biso      1.000     C          -0.016199           
         C21       1.0000    0.33989   0.46940   0.11440   Biso      1.000     C          -0.165154           
         C22       1.0000    0.49205   0.59720   0.92220   Biso      1.000     C          -0.101564           
         C23       1.0000    0.54022   0.56530   0.89280   Biso      1.000     C          -0.147993           
         C24       1.0000    0.57468   0.63600   0.85930   Biso      1.000     C          0.082954  
         C25       1.0000    0.37135   0.39640   0.16490   Biso      1.000     C          0.082375  
         C26       1.0000    0.65035   0.65050   0.76350   Biso      1.000     C          -0.145859           
         C27       1.0000    0.20284   0.87220   0.24510   Biso      1.000     C          -0.021841           
         C28       1.0000    0.34965   0.34950   0.23650   Biso      1.000     C          -0.145858           
         C29       1.0000    0.66011   0.53060   0.88560   Biso      1.000     C          -0.165154           
         C30       1.0000    0.74784   0.43610   0.92700   Biso      1.000     C          0.640979  
         C31       1.0000    0.07468   0.13600   0.85930   Biso      1.000     C          0.082953  
         C32       1.0000    0.04022   0.06530   0.89280   Biso      1.000     C          -0.147993           
         C33       1.0000    0.92824   0.76540   0.46170   Biso      1.000     C          0.585374  
         C34       1.0000    0.99205   0.09720   0.92220   Biso      1.000     C          -0.101564           
         C35       1.0000    0.23403   0.93990   0.29960   Biso      1.000     C          -0.119757           
         C36       1.0000    0.55850   0.26120   0.35360   Biso      1.000     C          -0.147769           
         C37       1.0000    0.51030   0.23030   0.38380   Biso      1.000     C          -0.099963           
         C38       1.0000    0.42824   0.26540   0.46170   Biso      1.000     C          0.585374  
         C39       1.0000    0.47780   0.29930   0.42000   Biso      1.000     C          -0.016199           
         C40       1.0000    0.21300   0.99030   0.36890   Biso      1.000     C          -0.01801  
         C41       1.0000    0.49205   0.40280   0.42220   Biso      1.000     C          -0.101564           
         C42       1.0000    0.24784   0.06390   0.42700   Biso      1.000     C          0.640979  
         C43       1.0000    0.54022   0.43470   0.39280   Biso      1.000     C          -0.147993           
         C44       1.0000    0.57468   0.36400   0.35930   Biso      1.000     C          0.082954  
         C45       1.0000    0.16011   0.96940   0.38560   Biso      1.000     C          -0.165154           
         C46       1.0000    0.65035   0.34950   0.26350   Biso      1.000     C          -0.145859           
         C47       1.0000    0.62865   0.39640   0.33510   Biso      1.000     C          0.082375  
         C48       1.0000    0.66011   0.46940   0.38560   Biso      1.000     C          -0.165155           
         C49       1.0000    0.71300   0.50970   0.86890   Biso      1.000     C          -0.018012           
         C50       1.0000    0.74784   0.56390   0.42700   Biso      1.000     C          0.640979  
         C51       1.0000    0.12865   0.89640   0.33510   Biso      1.000     C          0.082375  
         C52       1.0000    0.73403   0.43990   0.29960   Biso      1.000     C          -0.119764           
         C53       1.0000    0.70284   0.37220   0.24510   Biso      1.000     C          -0.021834           
         C54       1.0000    0.72450   0.32150   0.16590   Biso      1.000     C          0.66728   
         C55       1.0000    0.15035   0.84950   0.26350   Biso      1.000     C          -0.145858           
         C56       1.0000    0.07468   0.86400   0.35930   Biso      1.000     C          0.082954  
         C57       1.0000    0.04022   0.93470   0.39280   Biso      1.000     C          -0.147993           
         C58       1.0000    0.99205   0.90280   0.42220   Biso      1.000     C          -0.101564           
         C59       1.0000    0.94150   0.76120   0.14640   Biso      1.000     C          -0.14777  
         C60       1.0000    0.05850   0.23880   0.85360   Biso      1.000     C          -0.147768           
         C61       1.0000    0.01030   0.26970   0.88380   Biso      1.000     C          -0.099963           
         C62       1.0000    0.92824   0.23460   0.96170   Biso      1.000     C          0.585374  
         C63       1.0000    0.97780   0.20070   0.92000   Biso      1.000     C          -0.016199           
         C64       1.0000    0.97780   0.79930   0.42000   Biso      1.000     C          -0.016199           
         C65       1.0000    0.71300   0.49030   0.36890   Biso      1.000     C          -0.018009           
         C66       1.0000    0.73403   0.56010   0.79960   Biso      1.000     C          -0.119761           
         C67       1.0000    0.22450   0.82150   0.16590   Biso      1.000     C          0.667281  
         C68       1.0000    0.72450   0.67850   0.66590   Biso      1.000     C          0.66728   
         C69       1.0000    0.77550   0.17850   0.83410   Biso      1.000     C          0.667281  
         C70       1.0000    0.79716   0.87220   0.25490   Biso      1.000     C          -0.021841           
         C71       1.0000    0.76597   0.93990   0.20040   Biso      1.000     C          -0.119757           
         C72       1.0000    0.70284   0.62780   0.74510   Biso      1.000     C          -0.021834           
         C73       1.0000    0.75216   0.06390   0.07300   Biso      1.000     C          0.640979  
         C74       1.0000    0.83989   0.96940   0.11440   Biso      1.000     C          -0.165155           
         C75       1.0000    0.44150   0.73880   0.64640   Biso      1.000     C          -0.147769           
         C76       1.0000    0.87135   0.89640   0.16490   Biso      1.000     C          0.082375  
         C77       1.0000    0.48970   0.76970   0.61620   Biso      1.000     C          -0.099963           
         C78       1.0000    0.57176   0.73460   0.53830   Biso      1.000     C          0.585374  
         C79       1.0000    0.52220   0.70070   0.58000   Biso      1.000     C          -0.016199           
         C80       1.0000    0.84965   0.84950   0.23650   Biso      1.000     C          -0.145858           
         C81       1.0000    0.50795   0.59720   0.57780   Biso      1.000     C          -0.101564           
         C82       1.0000    0.45978   0.56530   0.60720   Biso      1.000     C          -0.147993           
         C83       1.0000    0.42532   0.63600   0.64070   Biso      1.000     C          0.082954  
         C84       1.0000    0.92532   0.86400   0.14070   Biso      1.000     C          0.082954  
         C85       1.0000    0.34965   0.65050   0.73650   Biso      1.000     C          -0.145859           
         C86       1.0000    0.37135   0.60360   0.66490   Biso      1.000     C          0.082375  
         C87       1.0000    0.95978   0.93470   0.10720   Biso      1.000     C          -0.147993           
         C88       1.0000    0.33989   0.53060   0.61440   Biso      1.000     C          -0.165154           
         C89       1.0000    0.25216   0.43610   0.57300   Biso      1.000     C          0.640979  
         C90       1.0000    0.28700   0.50970   0.63110   Biso      1.000     C          -0.018012           
         C91       1.0000    0.26597   0.56010   0.70040   Biso      1.000     C          -0.119761           
         C92       1.0000    0.29716   0.62780   0.75490   Biso      1.000     C          -0.021834           
         C93       1.0000    0.27550   0.67850   0.83410   Biso      1.000     C          0.66728   
         C94       1.0000    0.00795   0.90280   0.07780   Biso      1.000     C          -0.101562           
         C95       1.0000    0.02220   0.79930   0.08000   Biso      1.000     C          -0.016211           
         C96       1.0000    0.07176   0.76540   0.03830   Biso      1.000     C          0.585375  
         C97       1.0000    0.98970   0.73030   0.11620   Biso      1.000     C          -0.099951           
         C98       1.0000    0.79716   0.12780   0.75490   Biso      1.000     C          -0.021841           
         C99       1.0000    0.76597   0.06010   0.70040   Biso      1.000     C          -0.119757           
         C100      1.0000    0.78700   0.99030   0.13110   Biso      1.000     C          -0.01801  
         C101      1.0000    0.78700   0.00970   0.63110   Biso      1.000     C          -0.01801  
         C102      1.0000    0.95978   0.06530   0.60720   Biso      1.000     C          -0.147993           
         C103      1.0000    0.77550   0.82150   0.33410   Biso      1.000     C          0.667281  
         C104      1.0000    0.02220   0.20070   0.58000   Biso      1.000     C          -0.016211           
         C105      1.0000    0.07176   0.23460   0.53830   Biso      1.000     C          0.585375  
         C106      1.0000    0.98970   0.26970   0.61620   Biso      1.000     C          -0.099952           
         C107      1.0000    0.92532   0.13600   0.64070   Biso      1.000     C          0.082953  
         C108      1.0000    0.48970   0.23030   0.11620   Biso      1.000     C          -0.099964           
         C109      1.0000    0.94150   0.23880   0.64640   Biso      1.000     C          -0.147768           
         C110      1.0000    0.57176   0.26540   0.03830   Biso      1.000     C          0.585374  
         C111      1.0000    0.00795   0.09720   0.57780   Biso      1.000     C          -0.101562           
         C112      1.0000    0.84965   0.15050   0.73650   Biso      1.000     C          -0.145858           
         C113      1.0000    0.52220   0.29930   0.08000   Biso      1.000     C          -0.016199           
         C114      1.0000    0.50795   0.40280   0.07780   Biso      1.000     C          -0.101564           
         C115      1.0000    0.45978   0.43470   0.10720   Biso      1.000     C          -0.147993           
         C116      1.0000    0.87135   0.10360   0.66490   Biso      1.000     C          0.082375  
         C117      1.0000    0.42532   0.36400   0.14070   Biso      1.000     C          0.082953  
         C118      1.0000    0.83989   0.03060   0.61440   Biso      1.000     C          -0.165154           
         C119      1.0000    0.75216   0.93610   0.57300   Biso      1.000     C          0.640979  
         C120      1.0000    0.44150   0.26120   0.14640   Biso      1.000     C          -0.147766           
         Ce1       1.0000    0.17119   0.70304   0.96617   Biso      1.000     Ce          2.044718  
         Ce2       1.0000    0.67119   0.79696   0.46617   Biso      1.000     Ce          2.044718  
         Ce3       1.0000    0.32881   0.79696   0.03383   Biso      1.000     Ce          2.044718  
         Ce4       1.0000    0.32881   0.20304   0.53383   Biso      1.000     Ce          2.044718  
         Ce5       1.0000    0.17119   0.29696   0.46617   Biso      1.000     Ce          2.044718  
         Ce6       1.0000    0.67119   0.20304   0.96617   Biso      1.000     Ce          2.044718  
         Ce7       1.0000    0.82881   0.70304   0.53383   Biso      1.000     Ce          2.044718  
         Ce8       1.0000    0.82881   0.29696   0.03383   Biso      1.000     Ce          2.044718  
         H1        1.0000    0.00010   0.66090   0.37920   Biso      1.000     H          0.118494  
         H2        1.0000    0.99990   0.66090   0.12080   Biso      1.000     H          0.118494  
         H3        1.0000    0.37050   0.30240   0.27250   Biso      1.000     H          0.126026  
         H4        1.0000    0.26980   0.95200   0.28970   Biso      1.000     H          0.126891  
         H5        1.0000    0.73020   0.95200   0.21030   Biso      1.000     H          0.126891  
         H6        1.0000    0.03080   0.95150   0.05630   Biso      1.000     H          0.114897  
         H7        1.0000    0.45050   0.50470   0.10440   Biso      1.000     H          0.11614   
         H8        1.0000    0.08020   0.71240   0.32920   Biso      1.000     H          0.117042  
         H9        1.0000    0.04950   0.00470   0.39560   Biso      1.000     H          0.11614   
         H10       1.0000    0.12950   0.80240   0.22750   Biso      1.000     H          0.126026  
         H11       1.0000    0.95050   0.00470   0.10440   Biso      1.000     H          0.11614   
         H12       1.0000    0.85440   0.00470   0.06880   Biso      1.000     H          0.129168  
         H13       1.0000    0.41980   0.21240   0.17080   Biso      1.000     H          0.117042  
         H14       1.0000    0.14560   0.00470   0.43120   Biso      1.000     H          0.129168  
         H15       1.0000    0.35440   0.50470   0.06880   Biso      1.000     H          0.129168  
         H16       1.0000    0.96920   0.95150   0.44370   Biso      1.000     H          0.114897  
         H17       1.0000    0.23020   0.45200   0.21030   Biso      1.000     H          0.126891  
         H18       1.0000    0.49990   0.16090   0.12080   Biso      1.000     H          0.118494  
         H19       1.0000    0.53080   0.45150   0.05630   Biso      1.000     H          0.114897  
         H20       1.0000    0.87050   0.80240   0.27250   Biso      1.000     H          0.126026  
         H21       1.0000    0.08020   0.28760   0.82920   Biso      1.000     H          0.117042  
         H22       1.0000    0.64560   0.49530   0.93120   Biso      1.000     H          0.129168  
         H23       1.0000    0.50010   0.83910   0.87920   Biso      1.000     H          0.118494  
         H24       1.0000    0.46920   0.54850   0.94370   Biso      1.000     H          0.114897  
         H25       1.0000    0.54950   0.49530   0.89560   Biso      1.000     H          0.11614   
         H26       1.0000    0.62950   0.69760   0.72750   Biso      1.000     H          0.126026  
         H27       1.0000    0.76980   0.54800   0.78970   Biso      1.000     H          0.126891  
         H28       1.0000    0.91980   0.28760   0.67080   Biso      1.000     H          0.117042  
         H29       1.0000    0.99990   0.33910   0.62080   Biso      1.000     H          0.118494  
         H30       1.0000    0.03080   0.04850   0.55630   Biso      1.000     H          0.114896  
         H31       1.0000    0.95050   0.99530   0.60440   Biso      1.000     H          0.11614   
         H32       1.0000    0.87050   0.19760   0.77250   Biso      1.000     H          0.126026  
         H33       1.0000    0.85440   0.99530   0.56880   Biso      1.000     H          0.129168  
         H34       1.0000    0.73020   0.04800   0.71030   Biso      1.000     H          0.126891  
         H35       1.0000    0.41980   0.78760   0.67080   Biso      1.000     H          0.117042  
         H36       1.0000    0.49990   0.83910   0.62080   Biso      1.000     H          0.118494  
         H37       1.0000    0.53080   0.54850   0.55630   Biso      1.000     H          0.114897  
         H38       1.0000    0.45050   0.49530   0.60440   Biso      1.000     H          0.11614   
         H39       1.0000    0.37050   0.69760   0.77250   Biso      1.000     H          0.126026  
         H40       1.0000    0.35440   0.49530   0.56880   Biso      1.000     H          0.129168  
         H41       1.0000    0.23020   0.54800   0.71030   Biso      1.000     H          0.126891  
         H42       1.0000    0.58020   0.78760   0.82920   Biso      1.000     H          0.117042  
         H43       1.0000    0.26980   0.04800   0.78970   Biso      1.000     H          0.126891  
         H44       1.0000    0.91980   0.71240   0.17080   Biso      1.000     H          0.117042  
         H45       1.0000    0.12950   0.19760   0.72750   Biso      1.000     H          0.126026  
         H46       1.0000    0.58020   0.21240   0.32920   Biso      1.000     H          0.117042  
         H47       1.0000    0.50010   0.16090   0.37920   Biso      1.000     H          0.118494  
         H48       1.0000    0.46920   0.45150   0.44370   Biso      1.000     H          0.114897  
         H49       1.0000    0.54950   0.50470   0.39560   Biso      1.000     H          0.11614   
         H50       1.0000    0.62950   0.30240   0.22750   Biso      1.000     H          0.126026  
         H51       1.0000    0.64560   0.50470   0.43120   Biso      1.000     H          0.129168  
         H52       1.0000    0.14560   0.99530   0.93120   Biso      1.000     H          0.129168  
         H53       1.0000    0.00010   0.33910   0.87920   Biso      1.000     H          0.118494  
         H54       1.0000    0.96920   0.04850   0.94370   Biso      1.000     H          0.114897  
         H55       1.0000    0.04950   0.99530   0.89560   Biso      1.000     H          0.11614   
         H56       1.0000    0.76980   0.45200   0.28970   Biso      1.000     H          0.126891  
         O1        1.0000    0.19371   0.24110   0.62150   Biso      1.000     O          -0.627953           
         O2        1.0000    0.22817   0.34430   0.34840   Biso      1.000     O          -0.700401           
         O3        1.0000    0.08481   0.32930   0.54030   Biso      1.000     O          -0.653589           
         O4        1.0000    0.09850   0.16790   0.50160   Biso      1.000     O          -0.653839           
         O5        1.0000    0.77345   0.86060   0.53670   Biso      1.000     O          -0.737327           
         O6        1.0000    0.70203   0.95270   0.56060   Biso      1.000     O          -0.595122           
         O7        1.0000    0.72817   0.15570   0.84840   Biso      1.000     O          -0.700401           
         O8        1.0000    0.80629   0.24110   0.87850   Biso      1.000     O          -0.627953           
         O9        1.0000    0.30629   0.25890   0.37850   Biso      1.000     O          -0.627953           
         O10       1.0000    0.90150   0.16790   0.99840   Biso      1.000     O          -0.653839           
         O11       1.0000    0.08481   0.67070   0.04030   Biso      1.000     O          -0.653589           
         O12       1.0000    0.91519   0.32930   0.95970   Biso      1.000     O          -0.653589           
         O13       1.0000    0.27183   0.84430   0.15160   Biso      1.000     O          -0.700401           
         O14       1.0000    0.91519   0.67070   0.45970   Biso      1.000     O          -0.653589           
         O15       1.0000    0.90150   0.83210   0.49840   Biso      1.000     O          -0.653839           
         O16       1.0000    0.58481   0.82930   0.54030   Biso      1.000     O          -0.653589           
         O17       1.0000    0.59850   0.66790   0.50160   Biso      1.000     O          -0.653839           
         O18       1.0000    0.27345   0.36060   0.53670   Biso      1.000     O          -0.737327           
         O19       1.0000    0.20203   0.45270   0.56060   Biso      1.000     O          -0.595121           
         O20       1.0000    0.22817   0.65570   0.84840   Biso      1.000     O          -0.700401           
         O21       1.0000    0.30629   0.74110   0.87850   Biso      1.000     O          -0.627953           
         O22       1.0000    0.19371   0.75890   0.12150   Biso      1.000     O          -0.627953           
         O23       1.0000    0.09850   0.83210   0.00160   Biso      1.000     O          -0.653839           
         O24       1.0000    0.77345   0.13940   0.03670   Biso      1.000     O          -0.737327           
         O25       1.0000    0.70203   0.04730   0.06060   Biso      1.000     O          -0.595122           
         O26       1.0000    0.29797   0.95270   0.93940   Biso      1.000     O          -0.595121           
         O27       1.0000    0.22655   0.86060   0.96330   Biso      1.000     O          -0.737327           
         O28       1.0000    0.58481   0.17070   0.04030   Biso      1.000     O          -0.653589           
         O29       1.0000    0.69371   0.25890   0.12150   Biso      1.000     O          -0.627953           
         O30       1.0000    0.77183   0.34430   0.15160   Biso      1.000     O          -0.700401           
         O31       1.0000    0.29797   0.04730   0.43940   Biso      1.000     O          -0.595122           
         O32       1.0000    0.79797   0.54730   0.43940   Biso      1.000     O          -0.595121           
         O33       1.0000    0.41519   0.82930   0.95970   Biso      1.000     O          -0.653589           
         O34       1.0000    0.40150   0.66790   0.99840   Biso      1.000     O          -0.653839           
         O35       1.0000    0.72655   0.36060   0.96330   Biso      1.000     O          -0.737327           
         O36       1.0000    0.79797   0.45270   0.93940   Biso      1.000     O          -0.595121           
         O37       1.0000    0.77183   0.65570   0.65160   Biso      1.000     O          -0.700401           
         O38       1.0000    0.69371   0.74110   0.62150   Biso      1.000     O          -0.627953           
         O39       1.0000    0.72655   0.63940   0.46330   Biso      1.000     O          -0.737327           
         O40       1.0000    0.40150   0.33210   0.49840   Biso      1.000     O          -0.653839           
         O41       1.0000    0.41519   0.17070   0.45970   Biso      1.000     O          -0.653589           
         O42       1.0000    0.59850   0.33210   0.00160   Biso      1.000     O          -0.653839           
         O43       1.0000    0.27345   0.63940   0.03670   Biso      1.000     O          -0.737327           
         O44       1.0000    0.20203   0.54730   0.06060   Biso      1.000     O          -0.595122           
         O45       1.0000    0.80629   0.75890   0.37850   Biso      1.000     O          -0.627953           
         O46       1.0000    0.72817   0.84430   0.34840   Biso      1.000     O          -0.700401           
         O47       1.0000    0.27183   0.15570   0.65160   Biso      1.000     O          -0.700401           
         O48       1.0000    0.22655   0.13940   0.46330   Biso      1.000     O          -0.737327 