
##########################################################################
#               Crystallographic Information Format file
#               Produced by PyCifRW module
#
#  This is a CIF file.  CIF has been adopted by the International
#  Union of Crystallography as the standard for data archiving and
#  transmission.
#
#  For information on this file format, follow the CIF links at
#  http://www.iucr.org
##########################################################################

data_image0

_cell_length_a                          24.7168
_cell_length_b                          13.0121
_cell_length_c                          14.9778
_cell_angle_alpha                       90
_cell_angle_beta                        96.682
_cell_angle_gamma                       90
_symmetry_space_group_name_H-M          'P 1'
_symmetry_int_tables_number             1
loop_
  _symmetry_equiv_pos_as_xyz
         'x, y, z' 
loop_
  _atom_site_label
  _atom_site_occupancy
  _atom_site_fract_x
  _atom_site_fract_y
  _atom_site_fract_z
  _atom_site_thermal_displace_type
  _atom_site_B_iso_or_equiv
  _atom_site_type_symbol
  _atom_site_charge
         C1        1.0000    0.74821   0.43380   0.92570   Biso      1.000     C          0.644575  
         C2        1.0000    0.99190   0.90380   0.42200   Biso      1.000     C          -0.098874           
         C3        1.0000    0.16037   0.02870   0.88570   Biso      1.000     C          -0.165536           
         C4        1.0000    0.24821   0.93380   0.92570   Biso      1.000     C          0.644575  
         C5        1.0000    0.21356   0.00780   0.86850   Biso      1.000     C          -0.015746           
         C6        1.0000    0.23476   0.05770   0.79900   Biso      1.000     C          -0.125191           
         C7        1.0000    0.20348   0.12580   0.74500   Biso      1.000     C          -0.013399           
         C8        1.0000    0.22523   0.17620   0.66530   Biso      1.000     C          0.674934  
         C9        1.0000    0.97760   0.80150   0.41970   Biso      1.000     C          -0.020245           
         C10       1.0000    0.92776   0.76710   0.46060   Biso      1.000     C          0.587504  
         C11       1.0000    0.01100   0.73220   0.38420   Biso      1.000     C          -0.098061           
         C12       1.0000    0.05940   0.76350   0.35450   Biso      1.000     C          -0.148578           
         C13       1.0000    0.27477   0.32380   0.33470   Biso      1.000     C          0.674935  
         C14       1.0000    0.29652   0.37420   0.25500   Biso      1.000     C          -0.013404           
         C15       1.0000    0.55940   0.73650   0.85450   Biso      1.000     C          -0.14858  
         C16       1.0000    0.26524   0.44230   0.20100   Biso      1.000     C          -0.125188           
         C17       1.0000    0.51100   0.76780   0.88420   Biso      1.000     C          -0.098061           
         C18       1.0000    0.42776   0.73290   0.96060   Biso      1.000     C          0.587504  
         C19       1.0000    0.47760   0.69850   0.91970   Biso      1.000     C          -0.020247           
         C20       1.0000    0.49190   0.59620   0.92200   Biso      1.000     C          -0.098869           
         C21       1.0000    0.28644   0.49220   0.13150   Biso      1.000     C          -0.015744           
         C22       1.0000    0.54040   0.56440   0.89300   Biso      1.000     C          -0.147079           
         C23       1.0000    0.57519   0.63410   0.85980   Biso      1.000     C          0.083754  
         C24       1.0000    0.25179   0.56620   0.07430   Biso      1.000     C          0.644575  
         C25       1.0000    0.65156   0.64920   0.76360   Biso      1.000     C          -0.148848           
         C26       1.0000    0.62945   0.60170   0.83560   Biso      1.000     C          0.081085  
         C27       1.0000    0.33963   0.47130   0.11430   Biso      1.000     C          -0.165536           
         C28       1.0000    0.66037   0.52870   0.88570   Biso      1.000     C          -0.165535           
         C29       1.0000    0.42776   0.26710   0.46060   Biso      1.000     C          0.587504  
         C30       1.0000    0.71356   0.50780   0.86850   Biso      1.000     C          -0.015746           
         C31       1.0000    0.12945   0.10170   0.83560   Biso      1.000     C          0.081085  
         C32       1.0000    0.73476   0.55770   0.79900   Biso      1.000     C          -0.125192           
         C33       1.0000    0.15156   0.14920   0.76360   Biso      1.000     C          -0.148847           
         C34       1.0000    0.04040   0.06440   0.89300   Biso      1.000     C          -0.147079           
         C35       1.0000    0.47760   0.30150   0.41970   Biso      1.000     C          -0.02025  
         C36       1.0000    0.55940   0.26350   0.35450   Biso      1.000     C          -0.148581           
         C37       1.0000    0.49190   0.40380   0.42200   Biso      1.000     C          -0.098869           
         C38       1.0000    0.54040   0.43560   0.39300   Biso      1.000     C          -0.14708  
         C39       1.0000    0.57519   0.36590   0.35980   Biso      1.000     C          0.083754  
         C40       1.0000    0.22523   0.82380   0.16530   Biso      1.000     C          0.674935  
         C41       1.0000    0.65156   0.35080   0.26360   Biso      1.000     C          -0.148848           
         C42       1.0000    0.62945   0.39830   0.33560   Biso      1.000     C          0.081086  
         C43       1.0000    0.20348   0.87420   0.24500   Biso      1.000     C          -0.013405           
         C44       1.0000    0.66037   0.47130   0.38570   Biso      1.000     C          -0.165535           
         C45       1.0000    0.74821   0.56620   0.42570   Biso      1.000     C          0.644575  
         C46       1.0000    0.71356   0.49220   0.36850   Biso      1.000     C          -0.015746           
         C47       1.0000    0.23476   0.94230   0.29900   Biso      1.000     C          -0.125188           
         C48       1.0000    0.73476   0.44230   0.29900   Biso      1.000     C          -0.125192           
         C49       1.0000    0.70348   0.37420   0.24500   Biso      1.000     C          -0.013398           
         C50       1.0000    0.72523   0.32380   0.16530   Biso      1.000     C          0.674934  
         C51       1.0000    0.21356   0.99220   0.36850   Biso      1.000     C          -0.015744           
         C52       1.0000    0.24821   0.06620   0.42570   Biso      1.000     C          0.644575  
         C53       1.0000    0.16037   0.97130   0.38570   Biso      1.000     C          -0.165536           
         C54       1.0000    0.12945   0.89830   0.33560   Biso      1.000     C          0.081085  
         C55       1.0000    0.15156   0.85080   0.26360   Biso      1.000     C          -0.148846           
         C56       1.0000    0.94060   0.76350   0.14550   Biso      1.000     C          -0.14858  
         C57       1.0000    0.05940   0.23650   0.85450   Biso      1.000     C          -0.14858  
         C58       1.0000    0.01100   0.26780   0.88420   Biso      1.000     C          -0.098061           
         C59       1.0000    0.92776   0.23290   0.96060   Biso      1.000     C          0.587504  
         C60       1.0000    0.97760   0.19850   0.91970   Biso      1.000     C          -0.020247           
         C61       1.0000    0.07519   0.86590   0.35980   Biso      1.000     C          0.083752  
         C62       1.0000    0.99190   0.09620   0.92200   Biso      1.000     C          -0.098869           
         C63       1.0000    0.04040   0.93560   0.39300   Biso      1.000     C          -0.147076           
         C64       1.0000    0.07519   0.13410   0.85980   Biso      1.000     C          0.083754  
         C65       1.0000    0.70348   0.62580   0.74500   Biso      1.000     C          -0.013398           
         C66       1.0000    0.51100   0.23220   0.38420   Biso      1.000     C          -0.098058           
         C67       1.0000    0.37055   0.39830   0.16440   Biso      1.000     C          0.081085  
         C68       1.0000    0.76524   0.05770   0.70100   Biso      1.000     C          -0.125195           
         C69       1.0000    0.26524   0.55770   0.70100   Biso      1.000     C          -0.125195           
         C70       1.0000    0.79652   0.12580   0.75500   Biso      1.000     C          -0.013399           
         C71       1.0000    0.77477   0.17620   0.83470   Biso      1.000     C          0.674934  
         C72       1.0000    0.77477   0.82380   0.33470   Biso      1.000     C          0.674935  
         C73       1.0000    0.79652   0.87420   0.25500   Biso      1.000     C          -0.013405           
         C74       1.0000    0.76524   0.94230   0.20100   Biso      1.000     C          -0.125188           
         C75       1.0000    0.72523   0.67620   0.66530   Biso      1.000     C          0.674934  
         C76       1.0000    0.78644   0.99220   0.13150   Biso      1.000     C          -0.015744           
         C77       1.0000    0.75179   0.06620   0.07430   Biso      1.000     C          0.644575  
         C78       1.0000    0.83963   0.97130   0.11430   Biso      1.000     C          -0.165536           
         C79       1.0000    0.28644   0.50780   0.63150   Biso      1.000     C          -0.015743           
         C80       1.0000    0.44060   0.73650   0.64550   Biso      1.000     C          -0.14858  
         C81       1.0000    0.87055   0.89830   0.16440   Biso      1.000     C          0.081085  
         C82       1.0000    0.48900   0.76780   0.61580   Biso      1.000     C          -0.098061           
         C83       1.0000    0.57224   0.73290   0.53940   Biso      1.000     C          0.587504  
         C84       1.0000    0.25179   0.43380   0.57430   Biso      1.000     C          0.644575  
         C85       1.0000    0.52240   0.69850   0.58030   Biso      1.000     C          -0.020247           
         C86       1.0000    0.84844   0.85080   0.23640   Biso      1.000     C          -0.148846           
         C87       1.0000    0.50810   0.59620   0.57800   Biso      1.000     C          -0.098869           
         C88       1.0000    0.33963   0.52870   0.61430   Biso      1.000     C          -0.165536           
         C89       1.0000    0.95960   0.93560   0.10700   Biso      1.000     C          -0.147079           
         C90       1.0000    0.45960   0.56440   0.60700   Biso      1.000     C          -0.147079           
         C91       1.0000    0.42481   0.63410   0.64020   Biso      1.000     C          0.083754  
         C92       1.0000    0.92481   0.86590   0.14020   Biso      1.000     C          0.083754  
         C93       1.0000    0.29652   0.62580   0.75500   Biso      1.000     C          -0.013399           
         C94       1.0000    0.37055   0.60170   0.66440   Biso      1.000     C          0.081085  
         C95       1.0000    0.78644   0.00780   0.63150   Biso      1.000     C          -0.015743           
         C96       1.0000    0.83963   0.02870   0.61430   Biso      1.000     C          -0.165536           
         C97       1.0000    0.34844   0.35080   0.23640   Biso      1.000     C          -0.148846           
         C98       1.0000    0.98900   0.73220   0.11580   Biso      1.000     C          -0.098061           
         C99       1.0000    0.42481   0.36590   0.14020   Biso      1.000     C          0.083752  
         C100      1.0000    0.45960   0.43560   0.10700   Biso      1.000     C          -0.147076           
         C101      1.0000    0.07224   0.76710   0.03940   Biso      1.000     C          0.587504  
         C102      1.0000    0.50810   0.40380   0.07800   Biso      1.000     C          -0.098874           
         C103      1.0000    0.94060   0.23650   0.64550   Biso      1.000     C          -0.14858  
         C104      1.0000    0.52240   0.30150   0.08030   Biso      1.000     C          -0.020245           
         C105      1.0000    0.98900   0.26780   0.61580   Biso      1.000     C          -0.098061           
         C106      1.0000    0.07224   0.23290   0.53940   Biso      1.000     C          0.587504  
         C107      1.0000    0.75179   0.93380   0.57430   Biso      1.000     C          0.644575  
         C108      1.0000    0.02240   0.80150   0.08030   Biso      1.000     C          -0.020247           
         C109      1.0000    0.02240   0.19850   0.58030   Biso      1.000     C          -0.020247           
         C110      1.0000    0.00810   0.09620   0.57800   Biso      1.000     C          -0.098869           
         C111      1.0000    0.48900   0.23220   0.11580   Biso      1.000     C          -0.098061           
         C112      1.0000    0.95960   0.06440   0.60700   Biso      1.000     C          -0.147079           
         C113      1.0000    0.92481   0.13410   0.64020   Biso      1.000     C          0.083754  
         C114      1.0000    0.84844   0.14920   0.73640   Biso      1.000     C          -0.148847           
         C115      1.0000    0.00810   0.90380   0.07800   Biso      1.000     C          -0.098869           
         C116      1.0000    0.87055   0.10170   0.66440   Biso      1.000     C          0.081085  
         C117      1.0000    0.27477   0.67620   0.83470   Biso      1.000     C          0.674934  
         C118      1.0000    0.44060   0.26350   0.14550   Biso      1.000     C          -0.148578           
         C119      1.0000    0.57224   0.26710   0.03940   Biso      1.000     C          0.587504  
         C120      1.0000    0.34844   0.64920   0.73640   Biso      1.000     C          -0.148847           
         H1        1.0000    0.95040   0.00490   0.10420   Biso      1.000     H          0.116517  
         H2        1.0000    0.58160   0.21540   0.33090   Biso      1.000     H          0.117386  
         H3        1.0000    0.03120   0.95200   0.05670   Biso      1.000     H          0.115204  
         H4        1.0000    0.99900   0.66330   0.12000   Biso      1.000     H          0.119672  
         H5        1.0000    0.72950   0.95490   0.21140   Biso      1.000     H          0.131104  
         H6        1.0000    0.14560   0.00660   0.43110   Biso      1.000     H          0.13092   
         H7        1.0000    0.35440   0.50660   0.06890   Biso      1.000     H          0.13092   
         H8        1.0000    0.36910   0.30310   0.27190   Biso      1.000     H          0.127342  
         H9        1.0000    0.45040   0.50490   0.10420   Biso      1.000     H          0.116517  
         H10       1.0000    0.53120   0.45200   0.05670   Biso      1.000     H          0.115204  
         H11       1.0000    0.22950   0.45490   0.21140   Biso      1.000     H          0.131104  
         H12       1.0000    0.49900   0.16330   0.12000   Biso      1.000     H          0.119672  
         H13       1.0000    0.27050   0.95490   0.28860   Biso      1.000     H          0.131104  
         H14       1.0000    0.08160   0.71540   0.33090   Biso      1.000     H          0.117386  
         H15       1.0000    0.41840   0.21540   0.16910   Biso      1.000     H          0.117386  
         H16       1.0000    0.96880   0.95200   0.44330   Biso      1.000     H          0.115204  
         H17       1.0000    0.04960   0.00490   0.39580   Biso      1.000     H          0.116517  
         H18       1.0000    0.85440   0.00660   0.06890   Biso      1.000     H          0.13092   
         H19       1.0000    0.13090   0.80310   0.22810   Biso      1.000     H          0.127342  
         H20       1.0000    0.86910   0.80310   0.27190   Biso      1.000     H          0.127342  
         H21       1.0000    0.00100   0.66330   0.38000   Biso      1.000     H          0.119672  
         H22       1.0000    0.08160   0.28460   0.83090   Biso      1.000     H          0.117386  
         H23       1.0000    0.91840   0.71540   0.16910   Biso      1.000     H          0.117386  
         H24       1.0000    0.46880   0.45200   0.44330   Biso      1.000     H          0.115204  
         H25       1.0000    0.50100   0.83670   0.88000   Biso      1.000     H          0.119672  
         H26       1.0000    0.46880   0.54800   0.94330   Biso      1.000     H          0.115204  
         H27       1.0000    0.54960   0.49510   0.89580   Biso      1.000     H          0.116517  
         H28       1.0000    0.63090   0.69690   0.72810   Biso      1.000     H          0.127342  
         H29       1.0000    0.50100   0.16330   0.38000   Biso      1.000     H          0.119672  
         H30       1.0000    0.77050   0.54510   0.78860   Biso      1.000     H          0.131104  
         H31       1.0000    0.91840   0.28460   0.66910   Biso      1.000     H          0.117386  
         H32       1.0000    0.99900   0.33670   0.62000   Biso      1.000     H          0.119672  
         H33       1.0000    0.03120   0.04800   0.55670   Biso      1.000     H          0.115204  
         H34       1.0000    0.58160   0.78460   0.83090   Biso      1.000     H          0.117386  
         H35       1.0000    0.95040   0.99510   0.60420   Biso      1.000     H          0.116517  
         H36       1.0000    0.85440   0.99340   0.56890   Biso      1.000     H          0.13092   
         H37       1.0000    0.72950   0.04510   0.71140   Biso      1.000     H          0.131105  
         H38       1.0000    0.41840   0.78460   0.66910   Biso      1.000     H          0.117386  
         H39       1.0000    0.49900   0.83670   0.62000   Biso      1.000     H          0.119672  
         H40       1.0000    0.53120   0.54800   0.55670   Biso      1.000     H          0.115204  
         H41       1.0000    0.45040   0.49510   0.60420   Biso      1.000     H          0.116517  
         H42       1.0000    0.36910   0.69690   0.77190   Biso      1.000     H          0.127342  
         H43       1.0000    0.35440   0.49340   0.56890   Biso      1.000     H          0.13092   
         H44       1.0000    0.22950   0.54510   0.71140   Biso      1.000     H          0.131105  
         H45       1.0000    0.86910   0.19690   0.77190   Biso      1.000     H          0.127342  
         H46       1.0000    0.27050   0.04510   0.78860   Biso      1.000     H          0.131104  
         H47       1.0000    0.64560   0.49340   0.93110   Biso      1.000     H          0.13092   
         H48       1.0000    0.13090   0.19690   0.72810   Biso      1.000     H          0.127342  
         H49       1.0000    0.54960   0.50490   0.39580   Biso      1.000     H          0.116517  
         H50       1.0000    0.63090   0.30310   0.22810   Biso      1.000     H          0.127342  
         H51       1.0000    0.64560   0.50660   0.43110   Biso      1.000     H          0.13092   
         H52       1.0000    0.14560   0.99340   0.93110   Biso      1.000     H          0.13092   
         H53       1.0000    0.00100   0.33670   0.88000   Biso      1.000     H          0.119672  
         H54       1.0000    0.96880   0.04800   0.94330   Biso      1.000     H          0.115204  
         H55       1.0000    0.04960   0.99510   0.89580   Biso      1.000     H          0.116517  
         H56       1.0000    0.77050   0.45490   0.28860   Biso      1.000     H          0.131104  
         O1        1.0000    0.22721   0.34690   0.34960   Biso      1.000     O          -0.715464           
         O2        1.0000    0.91468   0.67350   0.45870   Biso      1.000     O          -0.659438           
         O3        1.0000    0.30531   0.26160   0.37840   Biso      1.000     O          -0.632775           
         O4        1.0000    0.80531   0.76160   0.37840   Biso      1.000     O          -0.632775           
         O5        1.0000    0.72721   0.84690   0.34960   Biso      1.000     O          -0.715464           
         O6        1.0000    0.70146   0.05090   0.06110   Biso      1.000     O          -0.597778           
         O7        1.0000    0.77373   0.14180   0.03820   Biso      1.000     O          -0.756264           
         O8        1.0000    0.09904   0.83290   0.00180   Biso      1.000     O          -0.661691           
         O9        1.0000    0.08532   0.67350   0.04130   Biso      1.000     O          -0.659438           
         O10       1.0000    0.08532   0.32650   0.54130   Biso      1.000     O          -0.659438           
         O11       1.0000    0.90096   0.16710   0.99820   Biso      1.000     O          -0.661691           
         O12       1.0000    0.09904   0.16710   0.50180   Biso      1.000     O          -0.661691           
         O13       1.0000    0.70146   0.94910   0.56110   Biso      1.000     O          -0.597778           
         O14       1.0000    0.72721   0.15310   0.84960   Biso      1.000     O          -0.715464           
         O15       1.0000    0.80531   0.23840   0.87840   Biso      1.000     O          -0.632775           
         O16       1.0000    0.59904   0.66710   0.50180   Biso      1.000     O          -0.661691           
         O17       1.0000    0.90096   0.83290   0.49820   Biso      1.000     O          -0.66169  
         O18       1.0000    0.22627   0.14180   0.46180   Biso      1.000     O          -0.756264           
         O19       1.0000    0.29854   0.05090   0.43890   Biso      1.000     O          -0.597778           
         O20       1.0000    0.27279   0.84690   0.15040   Biso      1.000     O          -0.715464           
         O21       1.0000    0.19469   0.76160   0.12160   Biso      1.000     O          -0.632775           
         O22       1.0000    0.77373   0.85820   0.53820   Biso      1.000     O          -0.756265           
         O23       1.0000    0.22627   0.85820   0.96180   Biso      1.000     O          -0.756264           
         O24       1.0000    0.29854   0.94910   0.93890   Biso      1.000     O          -0.597778           
         O25       1.0000    0.41468   0.17350   0.45870   Biso      1.000     O          -0.659438           
         O26       1.0000    0.20146   0.55090   0.06110   Biso      1.000     O          -0.597778           
         O27       1.0000    0.27373   0.64180   0.03820   Biso      1.000     O          -0.756264           
         O28       1.0000    0.59904   0.33290   0.00180   Biso      1.000     O          -0.66169  
         O29       1.0000    0.58532   0.17350   0.04130   Biso      1.000     O          -0.659438           
         O30       1.0000    0.30531   0.73840   0.87840   Biso      1.000     O          -0.632775           
         O31       1.0000    0.22721   0.65310   0.84960   Biso      1.000     O          -0.715464           
         O32       1.0000    0.19469   0.23840   0.62160   Biso      1.000     O          -0.632775           
         O33       1.0000    0.27279   0.15310   0.65040   Biso      1.000     O          -0.715464           
         O34       1.0000    0.20146   0.44910   0.56110   Biso      1.000     O          -0.597778           
         O35       1.0000    0.69469   0.26160   0.12160   Biso      1.000     O          -0.632775           
         O36       1.0000    0.77279   0.34690   0.15040   Biso      1.000     O          -0.715464           
         O37       1.0000    0.79854   0.55090   0.43890   Biso      1.000     O          -0.597778           
         O38       1.0000    0.41468   0.82650   0.95870   Biso      1.000     O          -0.659438           
         O39       1.0000    0.40096   0.66710   0.99820   Biso      1.000     O          -0.661691           
         O40       1.0000    0.72627   0.35820   0.96180   Biso      1.000     O          -0.756264           
         O41       1.0000    0.79854   0.44910   0.93890   Biso      1.000     O          -0.597778           
         O42       1.0000    0.77279   0.65310   0.65040   Biso      1.000     O          -0.715464           
         O43       1.0000    0.69469   0.73840   0.62160   Biso      1.000     O          -0.632774           
         O44       1.0000    0.27373   0.35820   0.53820   Biso      1.000     O          -0.756264           
         O45       1.0000    0.72627   0.64180   0.46180   Biso      1.000     O          -0.756264           
         O46       1.0000    0.40096   0.33290   0.49820   Biso      1.000     O          -0.661691           
         O47       1.0000    0.58532   0.82650   0.54130   Biso      1.000     O          -0.659438           
         O48       1.0000    0.91468   0.32650   0.95870   Biso      1.000     O          -0.659438           
         Pr1       1.0000    0.82881   0.70456   0.53267   Biso      1.000     Pr          2.074966  
         Pr2       1.0000    0.82881   0.29544   0.03267   Biso      1.000     Pr          2.074966  
         Pr3       1.0000    0.67119   0.79544   0.46733   Biso      1.000     Pr          2.074966  
         Pr4       1.0000    0.67119   0.20456   0.96733   Biso      1.000     Pr          2.074966  
         Pr5       1.0000    0.32881   0.20456   0.53267   Biso      1.000     Pr          2.074966  
         Pr6       1.0000    0.17119   0.29544   0.46733   Biso      1.000     Pr          2.074966  
         Pr7       1.0000    0.17119   0.70456   0.96733   Biso      1.000     Pr          2.074966  
         Pr8       1.0000    0.32881   0.79544   0.03267   Biso      1.000     Pr          2.074966 