
##########################################################################
#               Crystallographic Information Format file
#               Produced by PyCifRW module
#
#  This is a CIF file.  CIF has been adopted by the International
#  Union of Crystallography as the standard for data archiving and
#  transmission.
#
#  For information on this file format, follow the CIF links at
#  http://www.iucr.org
##########################################################################

data_image0

_cell_length_a                          15.5006
_cell_length_b                          15.5006
_cell_length_c                          18.3368
_cell_angle_alpha                       115.003
_cell_angle_beta                        115.003
_cell_angle_gamma                       90
_symmetry_space_group_name_H-M          'P 1'
_symmetry_int_tables_number             1
loop_
  _symmetry_equiv_pos_as_xyz
         'x, y, z' 
loop_
  _atom_site_label
  _atom_site_occupancy
  _atom_site_fract_x
  _atom_site_fract_y
  _atom_site_fract_z
  _atom_site_thermal_displace_type
  _atom_site_B_iso_or_equiv
  _atom_site_type_symbol
  _atom_site_charge
         C1        1.0000    0.40956   0.87736   0.60252   Biso      1.000     C          -0.140217           
         C2        1.0000    0.12264   0.59044   0.39748   Biso      1.000     C          -0.140217           
         C3        1.0000    0.08663   0.49713   0.32606   Biso      1.000     C          -0.118051           
         C4        1.0000    0.27484   0.80704   0.39748   Biso      1.000     C          -0.141527           
         C5        1.0000    0.23943   0.82893   0.32606   Biso      1.000     C          -0.116895           
         C6        1.0000    0.50287   0.91337   0.67394   Biso      1.000     C          -0.11805  
         C7        1.0000    0.19296   0.72516   0.60252   Biso      1.000     C          -0.141527           
         C8        1.0000    0.17107   0.76057   0.67394   Biso      1.000     C          -0.116895           
         C9        1.0000    0.72516   0.40956   0.60252   Biso      1.000     C          -0.14069500000000001          
         C10       1.0000    0.76057   0.50287   0.67394   Biso      1.000     C          -0.11858099999999999          
         C11       1.0000    0.87736   0.19296   0.60252   Biso      1.000     C          -0.14111300000000002          
         C12       1.0000    0.91337   0.17107   0.67394   Biso      1.000     C          -0.11755  
         C13       1.0000    0.19296   0.87736   0.60252   Biso      1.000     C          -0.14111300000000002          
         C14       1.0000    0.17107   0.91337   0.67394   Biso      1.000     C          -0.117551           
         C15       1.0000    0.08663   0.82893   0.32606   Biso      1.000     C          -0.11755399999999999          
         C16       1.0000    0.12264   0.80704   0.39748   Biso      1.000     C          -0.14110899999999998          
         C17       1.0000    0.23943   0.49713   0.32606   Biso      1.000     C          -0.11858099999999999          
         C18       1.0000    0.27484   0.59044   0.39748   Biso      1.000     C          -0.140693           
         C19       1.0000    0.82893   0.23943   0.32606   Biso      1.000     C          -0.116898           
         C20       1.0000    0.80704   0.27484   0.39748   Biso      1.000     C          -0.141524           
         C21       1.0000    0.49713   0.08663   0.32606   Biso      1.000     C          -0.11805299999999999          
         C22       1.0000    0.59044   0.12264   0.39748   Biso      1.000     C          -0.140214           
         C23       1.0000    0.76057   0.17107   0.67394   Biso      1.000     C          -0.116898           
         C24       1.0000    0.72516   0.19296   0.60252   Biso      1.000     C          -0.141524           
         C25       1.0000    0.91337   0.50287   0.67394   Biso      1.000     C          -0.118052           
         C26       1.0000    0.87736   0.40956   0.60252   Biso      1.000     C          -0.140214           
         C27       1.0000    0.49713   0.23943   0.32606   Biso      1.000     C          -0.11858199999999999          
         C28       1.0000    0.59044   0.27484   0.39748   Biso      1.000     C          -0.140693           
         C29       1.0000    0.82893   0.08663   0.32606   Biso      1.000     C          -0.11755499999999999          
         C30       1.0000    0.80704   0.12264   0.39748   Biso      1.000     C          -0.14110899999999998          
         C31       1.0000    0.75000   0.25000   0.50000   Biso      1.000     C          -0.026586000000000002         
         C32       1.0000    0.25000   0.75000   0.50000   Biso      1.000     C          -0.026586000000000002         
         C33       1.0000    0.20614   0.78314   0.56628   Biso      1.000     C          0.081612  
         C34       1.0000    0.16123   0.85573   0.71146   Biso      1.000     C          0.034589999999999996          
         C35       1.0000    0.14528   0.89608   0.79216   Biso      1.000     C          0.245536  
         C36       1.0000    0.36014   0.78314   0.56628   Biso      1.000     C          0.080948  
         C37       1.0000    0.55023   0.85573   0.71146   Biso      1.000     C          0.035325  
         C38       1.0000    0.64688   0.89608   0.79216   Biso      1.000     C          0.246535  
         C39       1.0000    0.78314   0.36014   0.56628   Biso      1.000     C          0.08094900000000001           
         C40       1.0000    0.85573   0.55023   0.71146   Biso      1.000     C          0.035328  
         C41       1.0000    0.89608   0.64688   0.79216   Biso      1.000     C          0.246535  
         C42       1.0000    0.78314   0.20614   0.56628   Biso      1.000     C          0.081611  
         C43       1.0000    0.50287   0.76057   0.67394   Biso      1.000     C          -0.118578           
         C44       1.0000    0.85573   0.16123   0.71146   Biso      1.000     C          0.034589999999999996          
         C45       1.0000    0.63986   0.21686   0.43372   Biso      1.000     C          0.08094900000000001           
         C46       1.0000    0.44977   0.14427   0.28854   Biso      1.000     C          0.035329  
         C47       1.0000    0.35312   0.10392   0.20784   Biso      1.000     C          0.246535  
         C48       1.0000    0.79386   0.21686   0.43372   Biso      1.000     C          0.081611  
         C49       1.0000    0.83877   0.14427   0.28854   Biso      1.000     C          0.034591000000000004          
         C50       1.0000    0.85472   0.10392   0.20784   Biso      1.000     C          0.24553899999999998           
         C51       1.0000    0.21686   0.63986   0.43372   Biso      1.000     C          0.08094900000000001           
         C52       1.0000    0.14427   0.44977   0.28854   Biso      1.000     C          0.035328  
         C53       1.0000    0.10392   0.35312   0.20784   Biso      1.000     C          0.246535  
         C54       1.0000    0.21686   0.79386   0.43372   Biso      1.000     C          0.081611  
         C55       1.0000    0.14427   0.83877   0.28854   Biso      1.000     C          0.034591000000000004          
         C56       1.0000    0.10392   0.85472   0.20784   Biso      1.000     C          0.245542  
         C57       1.0000    0.89608   0.14528   0.79216   Biso      1.000     C          0.245542  
         C58       1.0000    0.40956   0.72516   0.60252   Biso      1.000     C          -0.140692           
         Cl1       1.0000    0.00000   0.00000   0.00000   Biso      1.000     Cl          -0.530346           
         Cu1       1.0000    0.88316   0.30636   0.18952   Biso      1.000     Cu          0.076201  
         Cu2       1.0000    0.11582   0.11582   0.00000   Biso      1.000     Cu          0.29220100000000004           
         Cu3       1.0000    0.88418   0.11582   0.00000   Biso      1.000     Cu          0.292659  
         Cu4       1.0000    0.11582   0.88418   0.00000   Biso      1.000     Cu          0.29265399999999997           
         Cu5       1.0000    0.88316   0.88316   0.18952   Biso      1.000     Cu          0.076156  
         Cu6       1.0000    0.30636   0.30636   0.18952   Biso      1.000     Cu          0.076338  
         Cu7       1.0000    0.30636   0.88316   0.18952   Biso      1.000     Cu          0.076205  
         Cu8       1.0000    0.69364   0.11684   0.81048   Biso      1.000     Cu          0.07620199999999999           
         Cu9       1.0000    0.11684   0.69364   0.81048   Biso      1.000     Cu          0.076201  
         Cu10      1.0000    0.69364   0.69364   0.81048   Biso      1.000     Cu          0.07633999999999999           
         Cu11      1.0000    0.11684   0.11684   0.81048   Biso      1.000     Cu          0.076156  
         Cu12      1.0000    0.88418   0.88418   0.00000   Biso      1.000     Cu          0.29220300000000005           
         H1        1.0000    0.66070   0.37920   0.57820   Biso      1.000     H          0.113758  
         H2        1.0000    0.16280   0.71990   0.69700   Biso      1.000     H          0.088489  
         H3        1.0000    0.62080   0.33930   0.42180   Biso      1.000     H          0.113758  
         H4        1.0000    0.46580   0.28010   0.30300   Biso      1.000     H          0.089202  
         H5        1.0000    0.08250   0.62080   0.42180   Biso      1.000     H          0.11373599999999999           
         H6        1.0000    0.02290   0.46580   0.30300   Biso      1.000     H          0.088492  
         H7        1.0000    0.33930   0.80100   0.42180   Biso      1.000     H          0.114022  
         H8        1.0000    0.80100   0.08250   0.42180   Biso      1.000     H          0.113999  
         H9        1.0000    0.28010   0.83720   0.30300   Biso      1.000     H          0.08849   
         H10       1.0000    0.37920   0.91750   0.57820   Biso      1.000     H          0.11373599999999999           
         H11       1.0000    0.53420   0.97710   0.69700   Biso      1.000     H          0.088492  
         H12       1.0000    0.19900   0.66070   0.57820   Biso      1.000     H          0.114022  
         H13       1.0000    0.02290   0.83720   0.30300   Biso      1.000     H          0.088754  
         H14       1.0000    0.08250   0.80100   0.42180   Biso      1.000     H          0.113999  
         H15       1.0000    0.28010   0.46580   0.30300   Biso      1.000     H          0.08920299999999999           
         H16       1.0000    0.33930   0.62080   0.42180   Biso      1.000     H          0.113758  
         H17       1.0000    0.83720   0.02290   0.30300   Biso      1.000     H          0.088753  
         H18       1.0000    0.80100   0.33930   0.42180   Biso      1.000     H          0.114021  
         H19       1.0000    0.83720   0.28010   0.30300   Biso      1.000     H          0.08849   
         H20       1.0000    0.91750   0.19900   0.57820   Biso      1.000     H          0.113999  
         H21       1.0000    0.97710   0.16280   0.69700   Biso      1.000     H          0.088753  
         H22       1.0000    0.19900   0.91750   0.57820   Biso      1.000     H          0.113999  
         H23       1.0000    0.16280   0.97710   0.69700   Biso      1.000     H          0.088753  
         H24       1.0000    0.37920   0.66070   0.57820   Biso      1.000     H          0.113758  
         H25       1.0000    0.53420   0.71990   0.69700   Biso      1.000     H          0.089202  
         H26       1.0000    0.71990   0.53420   0.69700   Biso      1.000     H          0.089202  
         H27       1.0000    0.97710   0.53420   0.69700   Biso      1.000     H          0.088492  
         H28       1.0000    0.66070   0.19900   0.57820   Biso      1.000     H          0.114021  
         H29       1.0000    0.71990   0.16280   0.69700   Biso      1.000     H          0.08849   
         H30       1.0000    0.62080   0.08250   0.42180   Biso      1.000     H          0.11373599999999999           
         H31       1.0000    0.46580   0.02290   0.30300   Biso      1.000     H          0.088492  
         H32       1.0000    0.91750   0.37920   0.57820   Biso      1.000     H          0.11373599999999999           
         N1        1.0000    0.90945   0.77560   0.90432   Biso      1.000     N          -0.005034           
         N2        1.0000    0.84506   0.69506   0.83398   Biso      1.000     N          -0.19479200000000002          
         N3        1.0000    0.12872   0.90945   0.90432   Biso      1.000     N          -0.005594           
         N4        1.0000    0.13892   0.84506   0.83398   Biso      1.000     N          -0.194002           
         N5        1.0000    0.77560   0.99487   0.90432   Biso      1.000     N          -0.007829000000000001         
         N6        1.0000    0.69506   0.98892   0.83398   Biso      1.000     N          -0.192673           
         N7        1.0000    0.15494   0.86108   0.16602   Biso      1.000     N          -0.19403499999999999          
         N8        1.0000    0.00513   0.22440   0.09568   Biso      1.000     N          -0.007829000000000001         
         N9        1.0000    0.01108   0.30494   0.16602   Biso      1.000     N          -0.192673           
         N10       1.0000    0.22440   0.09055   0.09568   Biso      1.000     N          -0.005032           
         N11       1.0000    0.30494   0.15494   0.16602   Biso      1.000     N          -0.19479200000000002          
         N12       1.0000    0.98892   0.13892   0.83398   Biso      1.000     N          -0.193773           
         N13       1.0000    0.87128   0.00513   0.09568   Biso      1.000     N          -0.005794           
         N14       1.0000    0.09055   0.87128   0.09568   Biso      1.000     N          -0.005565           
         N15       1.0000    0.99487   0.12872   0.90432   Biso      1.000     N          -0.00576  
         N16       1.0000    0.84506   0.13892   0.83398   Biso      1.000     N          -0.19403800000000002          
         N17       1.0000    0.12872   0.99487   0.90432   Biso      1.000     N          -0.005748           
         N18       1.0000    0.69506   0.84506   0.83398   Biso      1.000     N          -0.19483  
         N19       1.0000    0.77560   0.90945   0.90432   Biso      1.000     N          -0.004953           
         N20       1.0000    0.98892   0.69506   0.83398   Biso      1.000     N          -0.192711           
         N21       1.0000    0.99487   0.77560   0.90432   Biso      1.000     N          -0.007749           
         N22       1.0000    0.90945   0.12872   0.90432   Biso      1.000     N          -0.005522999999999999         
         N23       1.0000    0.30494   0.01108   0.16602   Biso      1.000     N          -0.192712           
         N24       1.0000    0.22440   0.00513   0.09568   Biso      1.000     N          -0.0077480000000000005        
         N25       1.0000    0.86108   0.15494   0.16602   Biso      1.000     N          -0.19403900000000002          
         N26       1.0000    0.87128   0.09055   0.09568   Biso      1.000     N          -0.005519           
         N27       1.0000    0.15494   0.30494   0.16602   Biso      1.000     N          -0.194829           
         N28       1.0000    0.09055   0.22440   0.09568   Biso      1.000     N          -0.004954           
         N29       1.0000    0.01108   0.86108   0.16602   Biso      1.000     N          -0.193777           
         N30       1.0000    0.86108   0.01108   0.16602   Biso      1.000     N          -0.193741           
         N31       1.0000    0.13892   0.98892   0.83398   Biso      1.000     N          -0.193746           
         N32       1.0000    0.00513   0.87128   0.09568   Biso      1.000     N          -0.005718 