
##########################################################################
#               Crystallographic Information Format file
#               Produced by PyCifRW module
#
#  This is a CIF file.  CIF has been adopted by the International
#  Union of Crystallography as the standard for data archiving and
#  transmission.
#
#  For information on this file format, follow the CIF links at
#  http://www.iucr.org
##########################################################################

data_image0

_cell_length_a                          9.2209
_cell_length_b                          9.5441
_cell_length_c                          21.5841
_cell_angle_alpha                       90
_cell_angle_beta                        90
_cell_angle_gamma                       116.219
_symmetry_space_group_name_H-M          'P 1'
_symmetry_int_tables_number             1
loop_
  _symmetry_equiv_pos_as_xyz
         'x, y, z' 
loop_
  _atom_site_label
  _atom_site_occupancy
  _atom_site_fract_x
  _atom_site_fract_y
  _atom_site_fract_z
  _atom_site_thermal_displace_type
  _atom_site_B_iso_or_equiv
  _atom_site_type_symbol
  _atom_site_charge
         C1        1.0000    0.50360   0.97730   0.46580   Biso      1.000     C          0.494015  
         C2        1.0000    0.97130   0.92360   0.26730   Biso      1.000     C          0.024636  
         C3        1.0000    0.51130   0.50770   0.96460   Biso      1.000     C          0.496116  
         C4        1.0000    0.26910   0.25800   0.47000   Biso      1.000     C          0.651567  
         C5        1.0000    0.38400   0.51900   0.41740   Biso      1.000     C          0.048001  
         C6        1.0000    0.40330   0.39020   0.43520   Biso      1.000     C          -0.06717999999999999          
         C7        1.0000    0.54410   0.38140   0.41900   Biso      1.000     C          -0.05299500000000001          
         C8        1.0000    0.65770   0.49910   0.38440   Biso      1.000     C          -0.097302           
         C9        1.0000    0.62810   0.62280   0.36740   Biso      1.000     C          0.07681900000000001           
         C10       1.0000    0.02870   0.07640   0.73270   Biso      1.000     C          0.024638  
         C11       1.0000    0.04500   0.99020   0.68360   Biso      1.000     C          -0.067399           
         C12       1.0000    0.09320   0.87400   0.69790   Biso      1.000     C          -0.043423           
         C13       1.0000    0.12040   0.85100   0.75890   Biso      1.000     C          -0.131475           
         C14       1.0000    0.95500   0.00980   0.31640   Biso      1.000     C          -0.067371           
         C15       1.0000    0.10050   0.94240   0.80440   Biso      1.000     C          0.103191  
         C16       1.0000    0.87190   0.37720   0.86740   Biso      1.000     C          0.076801  
         C17       1.0000    0.84230   0.50090   0.88440   Biso      1.000     C          -0.097311           
         C18       1.0000    0.95590   0.61860   0.91900   Biso      1.000     C          -0.053032           
         C19       1.0000    0.09670   0.60980   0.93520   Biso      1.000     C          -0.067221           
         C20       1.0000    0.11600   0.48100   0.91740   Biso      1.000     C          0.047977  
         C21       1.0000    0.23090   0.74200   0.97000   Biso      1.000     C          0.651576  
         C22       1.0000    0.98870   0.49230   0.46460   Biso      1.000     C          0.496129  
         C23       1.0000    0.99640   0.02270   0.96580   Biso      1.000     C          0.49399   
         C24       1.0000    0.47130   0.92360   0.23270   Biso      1.000     C          0.024638  
         C25       1.0000    0.45500   0.00980   0.18360   Biso      1.000     C          -0.067361           
         C26       1.0000    0.40680   0.12600   0.19790   Biso      1.000     C          -0.043389           
         C27       1.0000    0.37960   0.14900   0.25890   Biso      1.000     C          -0.131469           
         C28       1.0000    0.01220   0.02430   0.61950   Biso      1.000     C          0.638069  
         C29       1.0000    0.90680   0.12600   0.30210   Biso      1.000     C          -0.0434   
         C30       1.0000    0.87960   0.14900   0.24110   Biso      1.000     C          -0.131472           
         C31       1.0000    0.89950   0.05760   0.19560   Biso      1.000     C          0.10322   
         C32       1.0000    0.49640   0.02270   0.53420   Biso      1.000     C          0.493996  
         C33       1.0000    0.48870   0.49230   0.03540   Biso      1.000     C          0.49613   
         C34       1.0000    0.73090   0.74200   0.53000   Biso      1.000     C          0.651578  
         C35       1.0000    0.61600   0.48100   0.58260   Biso      1.000     C          0.04798   
         C36       1.0000    0.59670   0.60980   0.56480   Biso      1.000     C          -0.067209           
         C37       1.0000    0.45590   0.61860   0.58100   Biso      1.000     C          -0.053032           
         C38       1.0000    0.34230   0.50090   0.61560   Biso      1.000     C          -0.097302           
         C39       1.0000    0.37190   0.37720   0.63260   Biso      1.000     C          0.07681900000000001           
         C40       1.0000    0.51220   0.02430   0.88050   Biso      1.000     C          0.638066  
         C41       1.0000    0.39950   0.05760   0.30440   Biso      1.000     C          0.103219  
         C42       1.0000    0.62040   0.85100   0.74110   Biso      1.000     C          -0.131477           
         C43       1.0000    0.60050   0.94240   0.69560   Biso      1.000     C          0.103192  
         C44       1.0000    0.54500   0.99020   0.81640   Biso      1.000     C          -0.067383           
         C45       1.0000    0.98780   0.97570   0.38050   Biso      1.000     C          0.638045  
         C46       1.0000    0.12810   0.62280   0.13260   Biso      1.000     C          0.07681   
         C47       1.0000    0.15770   0.49910   0.11560   Biso      1.000     C          -0.097303           
         C48       1.0000    0.59320   0.87400   0.80210   Biso      1.000     C          -0.043399           
         C49       1.0000    0.04410   0.38140   0.08100   Biso      1.000     C          -0.052988           
         C50       1.0000    0.48780   0.97570   0.11950   Biso      1.000     C          0.638042  
         C51       1.0000    0.88400   0.51900   0.08260   Biso      1.000     C          0.048005  
         C52       1.0000    0.76910   0.25800   0.03000   Biso      1.000     C          0.651567  
         C53       1.0000    0.01130   0.50770   0.53540   Biso      1.000     C          0.49611700000000003           
         C54       1.0000    0.00360   0.97730   0.03420   Biso      1.000     C          0.494012  
         C55       1.0000    0.52870   0.07640   0.76730   Biso      1.000     C          0.024645  
         C56       1.0000    0.90330   0.39020   0.06480   Biso      1.000     C          -0.067177           
         Cu1       1.0000    0.95995   0.80864   0.14593   Biso      1.000     Cu          0.340598  
         Cu2       1.0000    0.45995   0.80864   0.35407   Biso      1.000     Cu          0.34070500000000004           
         Cu3       1.0000    0.04005   0.19136   0.85407   Biso      1.000     Cu          0.340132  
         Cu4       1.0000    0.54005   0.19136   0.64593   Biso      1.000     Cu          0.34031100000000003           
         Gd1       1.0000    0.12410   0.85832   0.49154   Biso      1.000     Gd          2.040705  
         Gd2       1.0000    0.37590   0.14168   0.99154   Biso      1.000     Gd          2.040693  
         Gd3       1.0000    0.87590   0.14168   0.50846   Biso      1.000     Gd          2.040697  
         Gd4       1.0000    0.62410   0.85832   0.00846   Biso      1.000     Gd          2.040701  
         H1        1.0000    0.43860   0.70330   0.56860   Biso      1.000     H          0.12396199999999999           
         H2        1.0000    0.38330   0.07660   0.34550   Biso      1.000     H          0.101398  
         H3        1.0000    0.34790   0.22590   0.26940   Biso      1.000     H          0.127822  
         H4        1.0000    0.39330   0.18660   0.16670   Biso      1.000     H          0.135686  
         H5        1.0000    0.50520   0.84740   0.22370   Biso      1.000     H          0.099303  
         H6        1.0000    0.20930   0.47370   0.92930   Biso      1.000     H          0.109787  
         H7        1.0000    0.93860   0.70330   0.93140   Biso      1.000     H          0.12395999999999999           
         H8        1.0000    0.79460   0.29820   0.84360   Biso      1.000     H          0.08065900000000001           
         H9        1.0000    0.70930   0.47370   0.57070   Biso      1.000     H          0.10978900000000001           
         H10       1.0000    0.11670   0.92340   0.84550   Biso      1.000     H          0.10139   
         H11       1.0000    0.15210   0.77410   0.76940   Biso      1.000     H          0.127808  
         H12       1.0000    0.10670   0.81340   0.66670   Biso      1.000     H          0.135668  
         H13       1.0000    0.99480   0.15260   0.72370   Biso      1.000     H          0.099297  
         H14       1.0000    0.74700   0.50460   0.87260   Biso      1.000     H          0.135935  
         H15       1.0000    0.75300   0.49540   0.37260   Biso      1.000     H          0.135938  
         H16       1.0000    0.70540   0.70180   0.34360   Biso      1.000     H          0.080651  
         H17       1.0000    0.29070   0.52630   0.42930   Biso      1.000     H          0.109795  
         H18       1.0000    0.24700   0.50460   0.62740   Biso      1.000     H          0.13594   
         H19       1.0000    0.29460   0.29820   0.65640   Biso      1.000     H          0.080663  
         H20       1.0000    0.61670   0.92340   0.65450   Biso      1.000     H          0.101387  
         H21       1.0000    0.65210   0.77410   0.73060   Biso      1.000     H          0.12780899999999998           
         H22       1.0000    0.60670   0.81340   0.83330   Biso      1.000     H          0.135674  
         H23       1.0000    0.56140   0.29670   0.43140   Biso      1.000     H          0.123974  
         H24       1.0000    0.79070   0.52630   0.07070   Biso      1.000     H          0.10979900000000001           
         H25       1.0000    0.49480   0.15260   0.77630   Biso      1.000     H          0.0993    
         H26       1.0000    0.25300   0.49540   0.12740   Biso      1.000     H          0.135939  
         H27       1.0000    0.20540   0.70180   0.15640   Biso      1.000     H          0.080651  
         H28       1.0000    0.88330   0.07660   0.15450   Biso      1.000     H          0.10140199999999999           
         H29       1.0000    0.84790   0.22590   0.23060   Biso      1.000     H          0.127821  
         H30       1.0000    0.89330   0.18660   0.33330   Biso      1.000     H          0.135685  
         H31       1.0000    0.00520   0.84740   0.27630   Biso      1.000     H          0.099302  
         H32       1.0000    0.06140   0.29670   0.06860   Biso      1.000     H          0.123975  
         N1        1.0000    0.50460   0.36400   0.61700   Biso      1.000     N          -0.190321           
         N2        1.0000    0.55870   0.05730   0.70791   Biso      1.000     N          -0.18459  
         N3        1.0000    0.99540   0.63600   0.11700   Biso      1.000     N          -0.190363           
         N4        1.0000    0.94130   0.94270   0.20791   Biso      1.000     N          -0.184626           
         N5        1.0000    0.44130   0.94270   0.29209   Biso      1.000     N          -0.184651           
         N6        1.0000    0.00460   0.36400   0.88300   Biso      1.000     N          -0.19029100000000002          
         N7        1.0000    0.49540   0.63600   0.38300   Biso      1.000     N          -0.190386           
         N8        1.0000    0.05870   0.05730   0.79209   Biso      1.000     N          -0.184555           
         O1        1.0000    0.40810   0.35660   0.05661   Biso      1.000     O          -0.6169720000000001           
         O2        1.0000    0.55130   0.61620   0.06643   Biso      1.000     O          -0.591284           
         O3        1.0000    0.72140   0.86860   0.52911   Biso      1.000     O          -0.666029           
         O4        1.0000    0.83690   0.71460   0.50472   Biso      1.000     O          -0.655309           
         O5        1.0000    0.44520   0.11210   0.88744   Biso      1.000     O          -0.618475           
         O6        1.0000    0.55190   0.96380   0.92457   Biso      1.000     O          -0.693095           
         O7        1.0000    0.63690   0.03860   0.43898   Biso      1.000     O          -0.571658           
         O8        1.0000    0.87110   0.88220   0.05829   Biso      1.000     O          -0.580676           
         O9        1.0000    0.09190   0.64340   0.55661   Biso      1.000     O          -0.616934           
         O10       1.0000    0.94870   0.38380   0.56643   Biso      1.000     O          -0.59123  
         O11       1.0000    0.77860   0.13140   0.02911   Biso      1.000     O          -0.666017           
         O12       1.0000    0.66310   0.28540   0.00472   Biso      1.000     O          -0.655273           
         O13       1.0000    0.05480   0.88790   0.38744   Biso      1.000     O          -0.618477           
         O14       1.0000    0.94810   0.03620   0.42457   Biso      1.000     O          -0.6930649999999999           
         O15       1.0000    0.13690   0.03860   0.06102   Biso      1.000     O          -0.571661           
         O16       1.0000    0.37110   0.88220   0.44171   Biso      1.000     O          -0.580683           
         O17       1.0000    0.44870   0.38380   0.93357   Biso      1.000     O          -0.5912270000000001           
         O18       1.0000    0.27860   0.13140   0.47089   Biso      1.000     O          -0.6660229999999999           
         O19       1.0000    0.16310   0.28540   0.49528   Biso      1.000     O          -0.655278           
         O20       1.0000    0.55480   0.88790   0.11256   Biso      1.000     O          -0.6184729999999999           
         O21       1.0000    0.44810   0.03620   0.07543   Biso      1.000     O          -0.693058           
         O22       1.0000    0.86310   0.96140   0.93898   Biso      1.000     O          -0.571605           
         O23       1.0000    0.12890   0.11780   0.94171   Biso      1.000     O          -0.580611           
         O24       1.0000    0.90810   0.35660   0.44339   Biso      1.000     O          -0.61697  
         O25       1.0000    0.05130   0.61620   0.43357   Biso      1.000     O          -0.591284           
         O26       1.0000    0.22140   0.86860   0.97089   Biso      1.000     O          -0.666031           
         O27       1.0000    0.33690   0.71460   0.99528   Biso      1.000     O          -0.6553140000000001           
         O28       1.0000    0.94520   0.11210   0.61256   Biso      1.000     O          -0.618482           
         O29       1.0000    0.05190   0.96380   0.57543   Biso      1.000     O          -0.6931039999999999           
         O30       1.0000    0.62890   0.11780   0.55829   Biso      1.000     O          -0.580625           
         O31       1.0000    0.59190   0.64340   0.94339   Biso      1.000     O          -0.616935           
         O32       1.0000    0.36310   0.96140   0.56102   Biso      1.000     O          -0.5716060000000001 