
##########################################################################
#               Crystallographic Information Format file
#               Produced by PyCifRW module
#
#  This is a CIF file.  CIF has been adopted by the International
#  Union of Crystallography as the standard for data archiving and
#  transmission.
#
#  For information on this file format, follow the CIF links at
#  http://www.iucr.org
##########################################################################

data_image0

_cell_length_a                          26.166
_cell_length_b                          26.166
_cell_length_c                          6.8595
_cell_angle_alpha                       90
_cell_angle_beta                        90
_cell_angle_gamma                       120
_symmetry_space_group_name_H-M          'P 1'
_symmetry_int_tables_number             1
loop_
  _symmetry_equiv_pos_as_xyz
         'x, y, z' 
loop_
  _atom_site_label
  _atom_site_occupancy
  _atom_site_fract_x
  _atom_site_fract_y
  _atom_site_fract_z
  _atom_site_thermal_displace_type
  _atom_site_B_iso_or_equiv
  _atom_site_type_symbol
  _atom_site_charge
         C1        1.0000    0.32287   0.11200   0.24093   Biso      1.000     C          0.296518  
         C2        1.0000    0.15167   0.83561   0.63947   Biso      1.000     C          -0.192931           
         C3        1.0000    0.11200   0.78914   0.75907   Biso      1.000     C          0.296502  
         C4        1.0000    0.12705   0.78786   0.95537   Biso      1.000     C          -0.14315799999999998          
         C5        1.0000    0.08703   0.73967   0.09587   Biso      1.000     C          0.62545   
         C6        1.0000    0.33920   0.12705   0.04463   Biso      1.000     C          -0.14288199999999998          
         C7        1.0000    0.98273   0.48501   0.69387   Biso      1.000     C          -0.192472           
         C8        1.0000    0.84833   0.16439   0.36053   Biso      1.000     C          -0.192949           
         C9        1.0000    0.57963   0.59367   0.23747   Biso      1.000     C          0.624302  
         C10       1.0000    0.53961   0.54548   0.37797   Biso      1.000     C          -0.141758           
         C11       1.0000    0.48501   0.50227   0.30613   Biso      1.000     C          -0.192626           
         C12       1.0000    0.44534   0.45580   0.42573   Biso      1.000     C          0.29639099999999996           
         C13       1.0000    0.46039   0.45452   0.62203   Biso      1.000     C          -0.141872           
         C14       1.0000    0.42037   0.40633   0.76253   Biso      1.000     C          0.624412  
         C15       1.0000    0.55466   0.54420   0.57427   Biso      1.000     C          0.29643400000000003           
         C16       1.0000    0.98953   0.44534   0.57427   Biso      1.000     C          0.29636399999999996           
         C17       1.0000    0.88800   0.21086   0.24093   Biso      1.000     C          0.296491  
         C18       1.0000    0.87295   0.21214   0.04463   Biso      1.000     C          -0.14314100000000002          
         C19       1.0000    0.91297   0.26033   0.90413   Biso      1.000     C          0.625359  
         C20       1.0000    0.21214   0.33920   0.95537   Biso      1.000     C          -0.14330199999999998          
         C21       1.0000    0.20628   0.87881   0.71130   Biso      1.000     C          -0.141965           
         C22       1.0000    0.49773   0.98273   0.30613   Biso      1.000     C          -0.19287  
         C23       1.0000    0.54420   0.98953   0.42573   Biso      1.000     C          0.29651700000000003           
         C24       1.0000    0.54548   0.00586   0.62203   Biso      1.000     C          -0.141806           
         C25       1.0000    0.59367   0.01403   0.76253   Biso      1.000     C          0.624474  
         C26       1.0000    0.22133   0.87753   0.90760   Biso      1.000     C          0.296298  
         C27       1.0000    0.18166   0.83106   0.02720   Biso      1.000     C          -0.19252  
         C28       1.0000    0.21086   0.32287   0.75907   Biso      1.000     C          0.296286  
         C29       1.0000    0.16439   0.31607   0.63947   Biso      1.000     C          -0.193116           
         C30       1.0000    0.50227   0.01727   0.69387   Biso      1.000     C          -0.192896           
         C31       1.0000    0.83106   0.64940   0.97280   Biso      1.000     C          -0.19251400000000002          
         C32       1.0000    0.87753   0.65620   0.09240   Biso      1.000     C          0.296324  
         C33       1.0000    0.87881   0.67253   0.28870   Biso      1.000     C          -0.141786           
         C34       1.0000    0.92700   0.68070   0.42920   Biso      1.000     C          0.626046  
         C35       1.0000    0.51499   0.49773   0.69387   Biso      1.000     C          -0.192597           
         C36       1.0000    0.24630   0.92700   0.57080   Biso      1.000     C          0.626069  
         C37       1.0000    0.00586   0.46039   0.37797   Biso      1.000     C          -0.14186300000000002          
         C38       1.0000    0.67253   0.79372   0.71130   Biso      1.000     C          -0.141941           
         C39       1.0000    0.01727   0.51499   0.30613   Biso      1.000     C          -0.192529           
         C40       1.0000    0.01047   0.55466   0.42573   Biso      1.000     C          0.296281  
         C41       1.0000    0.99414   0.53961   0.62203   Biso      1.000     C          -0.142047           
         C42       1.0000    0.98597   0.57963   0.76253   Biso      1.000     C          0.62443   
         C43       1.0000    0.78914   0.67713   0.24093   Biso      1.000     C          0.29636799999999996           
         C44       1.0000    0.83561   0.68393   0.36053   Biso      1.000     C          -0.19306199999999998          
         C45       1.0000    0.31607   0.15167   0.36053   Biso      1.000     C          -0.192939           
         C46       1.0000    0.34737   0.08703   0.90413   Biso      1.000     C          0.625451  
         C47       1.0000    0.35060   0.18166   0.97280   Biso      1.000     C          -0.192663           
         C48       1.0000    0.34380   0.22133   0.09240   Biso      1.000     C          0.296323  
         C49       1.0000    0.32747   0.20628   0.28870   Biso      1.000     C          -0.14191099999999998          
         C50       1.0000    0.31930   0.24630   0.42920   Biso      1.000     C          0.626175  
         C51       1.0000    0.40633   0.98597   0.23747   Biso      1.000     C          0.6245189999999999  
         C52       1.0000    0.45452   0.99414   0.37797   Biso      1.000     C          -0.14191099999999998          
         C53       1.0000    0.45580   0.01047   0.57427   Biso      1.000     C          0.29646100000000003           
         C54       1.0000    0.78786   0.66080   0.04463   Biso      1.000     C          -0.143153           
         C55       1.0000    0.68070   0.75370   0.57080   Biso      1.000     C          0.626115  
         C56       1.0000    0.26033   0.34737   0.09587   Biso      1.000     C          0.6254029999999999  
         C57       1.0000    0.73967   0.65263   0.90413   Biso      1.000     C          0.625306  
         C58       1.0000    0.81834   0.16894   0.97280   Biso      1.000     C          -0.192576           
         C59       1.0000    0.77867   0.12247   0.09240   Biso      1.000     C          0.29627   
         C60       1.0000    0.79372   0.12119   0.28870   Biso      1.000     C          -0.142031           
         C61       1.0000    0.75370   0.07300   0.42920   Biso      1.000     C          0.626074  
         C62       1.0000    0.07300   0.31930   0.57080   Biso      1.000     C          0.6259    
         C63       1.0000    0.12119   0.32747   0.71130   Biso      1.000     C          -0.141648           
         C64       1.0000    0.12247   0.34380   0.90760   Biso      1.000     C          0.29638600000000004           
         C65       1.0000    0.65620   0.77867   0.90760   Biso      1.000     C          0.296302  
         C66       1.0000    0.68393   0.84833   0.63947   Biso      1.000     C          -0.192973           
         C67       1.0000    0.67713   0.88800   0.75907   Biso      1.000     C          0.296501  
         C68       1.0000    0.66080   0.87295   0.95537   Biso      1.000     C          -0.142907           
         C69       1.0000    0.65263   0.91297   0.09587   Biso      1.000     C          0.625436  
         C70       1.0000    0.64940   0.81834   0.02720   Biso      1.000     C          -0.192688           
         C71       1.0000    0.01403   0.42037   0.23747   Biso      1.000     C          0.624283  
         C72       1.0000    0.16894   0.35060   0.02720   Biso      1.000     C          -0.192484           
         Fe1       1.0000    0.61811   0.64795   0.85630   Biso      1.000     Fe          0.936365  
         Fe2       1.0000    0.95144   0.31462   0.52297   Biso      1.000     Fe          0.936177  
         Fe3       1.0000    0.28478   0.98128   0.18963   Biso      1.000     Fe          0.936939  
         Fe4       1.0000    0.38189   0.35205   0.14370   Biso      1.000     Fe          0.936724  
         Fe5       1.0000    0.35205   0.97016   0.85630   Biso      1.000     Fe          0.936444  
         Fe6       1.0000    0.36317   0.04856   0.52297   Biso      1.000     Fe          0.936786  
         Fe7       1.0000    0.04856   0.68538   0.47703   Biso      1.000     Fe          0.936853  
         Fe8       1.0000    0.71522   0.01872   0.81037   Biso      1.000     Fe          0.9370059999999999  
         Fe9       1.0000    0.69651   0.71522   0.18963   Biso      1.000     Fe          0.9371709999999999  
         Fe10      1.0000    0.64795   0.02984   0.14370   Biso      1.000     Fe          0.9364    
         Fe11      1.0000    0.31462   0.36317   0.47703   Biso      1.000     Fe          0.937366  
         Fe12      1.0000    0.02984   0.38189   0.85630   Biso      1.000     Fe          0.935731  
         Fe13      1.0000    0.68538   0.63683   0.52297   Biso      1.000     Fe          0.936891  
         Fe14      1.0000    0.97016   0.61811   0.14370   Biso      1.000     Fe          0.936375  
         Fe15      1.0000    0.01872   0.30349   0.18963   Biso      1.000     Fe          0.9361149999999999  
         Fe16      1.0000    0.63683   0.95144   0.47703   Biso      1.000     Fe          0.9367    
         Fe17      1.0000    0.30349   0.28478   0.81037   Biso      1.000     Fe          0.937692  
         Fe18      1.0000    0.98128   0.69651   0.81037   Biso      1.000     Fe          0.9368040000000001  
         H1        1.0000    0.52637   0.49781   0.83787   Biso      1.000     H          0.143291  
         H2        1.0000    0.97143   0.47363   0.83787   Biso      1.000     H          0.143189  
         H3        1.0000    0.16886   0.36190   0.17120   Biso      1.000     H          0.143446  
         H4        1.0000    0.83553   0.69523   0.50453   Biso      1.000     H          0.143373  
         H5        1.0000    0.30477   0.14029   0.50453   Biso      1.000     H          0.143378  
         H6        1.0000    0.19304   0.83114   0.17120   Biso      1.000     H          0.14343699999999998           
         H7        1.0000    0.85971   0.16447   0.50453   Biso      1.000     H          0.143257  
         H8        1.0000    0.16447   0.30477   0.49547   Biso      1.000     H          0.143351  
         H9        1.0000    0.50219   0.02857   0.83787   Biso      1.000     H          0.143256  
         H10       1.0000    0.80696   0.16886   0.82880   Biso      1.000     H          0.143423  
         H11       1.0000    0.14029   0.83553   0.49547   Biso      1.000     H          0.143262  
         H12       1.0000    0.69523   0.85971   0.49547   Biso      1.000     H          0.143371  
         H13       1.0000    0.83114   0.63810   0.82880   Biso      1.000     H          0.14344400000000002           
         H14       1.0000    0.49781   0.97143   0.16213   Biso      1.000     H          0.143269  
         H15       1.0000    0.02857   0.52637   0.16213   Biso      1.000     H          0.14317   
         H16       1.0000    0.36190   0.19304   0.82880   Biso      1.000     H          0.14344300000000001           
         H17       1.0000    0.47363   0.50219   0.16213   Biso      1.000     H          0.143289  
         H18       1.0000    0.63810   0.80696   0.17120   Biso      1.000     H          0.143427  
         O1        1.0000    0.99453   0.62906   0.70093   Biso      1.000     O          -0.571775           
         O2        1.0000    0.43952   0.40722   0.93523   Biso      1.000     O          -0.5268550000000001           
         O3        1.0000    0.37094   0.36546   0.70093   Biso      1.000     O          -0.571652           
         O4        1.0000    0.32786   0.29573   0.36760   Biso      1.000     O          -0.571773           
         O5        1.0000    0.03213   0.32786   0.63240   Biso      1.000     O          -0.5714819999999999           
         O6        1.0000    0.07389   0.30104   0.39810   Biso      1.000     O          -0.528335           
         O7        1.0000    0.30104   0.22715   0.60190   Biso      1.000     O          -0.528166           
         O8        1.0000    0.08117   0.35497   0.99160   Biso      1.000     O          -0.567463           
         O9        1.0000    0.72620   0.08117   0.00840   Biso      1.000     O          -0.5675899999999999           
         O10       1.0000    0.77285   0.07389   0.60190   Biso      1.000     O          -0.52818  
         O11       1.0000    0.70427   0.03213   0.36760   Biso      1.000     O          -0.571729           
         O12       1.0000    0.35497   0.27380   0.00840   Biso      1.000     O          -0.567635           
         O13       1.0000    0.68830   0.94047   0.67507   Biso      1.000     O          -0.5675640000000001           
         O14       1.0000    0.41450   0.02164   0.65827   Biso      1.000     O          -0.567472           
         O15       1.0000    0.63437   0.89382   0.26857   Biso      1.000     O          -0.5273439999999999           
         O16       1.0000    0.69880   0.66119   0.96573   Biso      1.000     O          -0.571893           
         O17       1.0000    0.39287   0.41450   0.34173   Biso      1.000     O          -0.5674640000000001           
         O18       1.0000    0.74784   0.68830   0.32493   Biso      1.000     O          -0.567431           
         O19       1.0000    0.66119   0.96240   0.03427   Biso      1.000     O          -0.571823           
         O20       1.0000    0.40722   0.96771   0.06477   Biso      1.000     O          -0.526878           
         O21       1.0000    0.02164   0.60713   0.34173   Biso      1.000     O          -0.567421           
         O22       1.0000    0.96771   0.56048   0.93523   Biso      1.000     O          -0.526932           
         O23       1.0000    0.36546   0.99453   0.29907   Biso      1.000     O          -0.571732           
         O24       1.0000    0.74056   0.63437   0.73143   Biso      1.000     O          -0.52713  
         O25       1.0000    0.36563   0.10618   0.73143   Biso      1.000     O          -0.5273180000000001           
         O26       1.0000    0.31170   0.05953   0.32493   Biso      1.000     O          -0.567551           
         O27       1.0000    0.33881   0.03760   0.96573   Biso      1.000     O          -0.571793           
         O28       1.0000    0.00547   0.37094   0.29907   Biso      1.000     O          -0.571611           
         O29       1.0000    0.03229   0.43952   0.06477   Biso      1.000     O          -0.527048           
         O30       1.0000    0.97836   0.39287   0.65827   Biso      1.000     O          -0.567339           
         O31       1.0000    0.64503   0.72620   0.99160   Biso      1.000     O          -0.567587           
         O32       1.0000    0.69896   0.77285   0.39810   Biso      1.000     O          -0.5281560000000001           
         O33       1.0000    0.67214   0.70427   0.63240   Biso      1.000     O          -0.571759           
         O34       1.0000    0.25216   0.31170   0.67507   Biso      1.000     O          -0.567492           
         O35       1.0000    0.25944   0.36563   0.26857   Biso      1.000     O          -0.527044           
         O36       1.0000    0.29573   0.96787   0.63240   Biso      1.000     O          -0.5716979999999999           
         O37       1.0000    0.22715   0.92611   0.39810   Biso      1.000     O          -0.5281779999999999           
         O38       1.0000    0.27380   0.91883   0.99160   Biso      1.000     O          -0.567547           
         O39       1.0000    0.03760   0.69880   0.03427   Biso      1.000     O          -0.571757           
         O40       1.0000    0.30120   0.33881   0.03427   Biso      1.000     O          -0.57204  
         O41       1.0000    0.59278   0.03229   0.93523   Biso      1.000     O          -0.526936           
         O42       1.0000    0.63454   0.00547   0.70093   Biso      1.000     O          -0.571681           
         O43       1.0000    0.96240   0.30120   0.96573   Biso      1.000     O          -0.571696           
         O44       1.0000    0.89382   0.25944   0.73143   Biso      1.000     O          -0.527425           
         O45       1.0000    0.94047   0.25216   0.32493   Biso      1.000     O          -0.567348           
         O46       1.0000    0.91883   0.64503   0.00840   Biso      1.000     O          -0.567543           
         O47       1.0000    0.92611   0.69896   0.60190   Biso      1.000     O          -0.528241           
         O48       1.0000    0.96787   0.67214   0.36760   Biso      1.000     O          -0.571655           
         O49       1.0000    0.05953   0.74784   0.67507   Biso      1.000     O          -0.567429           
         O50       1.0000    0.10618   0.74056   0.26857   Biso      1.000     O          -0.527374           
         O51       1.0000    0.62906   0.63454   0.29907   Biso      1.000     O          -0.571539           
         O52       1.0000    0.56048   0.59278   0.06477   Biso      1.000     O          -0.526909           
         O53       1.0000    0.58550   0.97836   0.34173   Biso      1.000     O          -0.567483           
         O54       1.0000    0.60713   0.58550   0.65827   Biso      1.000     O          -0.56745 