
##########################################################################
#               Crystallographic Information Format file
#               Produced by PyCifRW module
#
#  This is a CIF file.  CIF has been adopted by the International
#  Union of Crystallography as the standard for data archiving and
#  transmission.
#
#  For information on this file format, follow the CIF links at
#  http://www.iucr.org
##########################################################################

data_image0

_cell_length_a                          10.0062
_cell_length_b                          15.3874
_cell_length_c                          15.3874
_cell_angle_alpha                       75.4303
_cell_angle_beta                        71.0259
_cell_angle_gamma                       71.0259
_symmetry_space_group_name_H-M          'P 1'
_symmetry_int_tables_number             1
loop_
  _symmetry_equiv_pos_as_xyz
         'x, y, z' 
loop_
  _atom_site_label
  _atom_site_occupancy
  _atom_site_fract_x
  _atom_site_fract_y
  _atom_site_fract_z
  _atom_site_thermal_displace_type
  _atom_site_B_iso_or_equiv
  _atom_site_type_symbol
  _atom_site_charge
         C1        1.0000    0.60673   0.48857   0.41577   Biso      1.000     C          0.07453   
         C2        1.0000    0.68956   0.24224   0.52184   Biso      1.000     C          -0.23969  
         C3        1.0000    0.03053   0.65247   0.00947   Biso      1.000     C          0.655267  
         C4        1.0000    0.31044   0.47816   0.75776   Biso      1.000     C          -0.239691           
         C5        1.0000    0.80753   0.50947   0.15247   Biso      1.000     C          0.65407   
         C6        1.0000    0.00000   0.92780   0.07220   Biso      1.000     C          -0.205892           
         C7        1.0000    0.95364   0.25776   0.97816   Biso      1.000     C          -0.241928           
         C8        1.0000    0.04636   0.74224   0.02184   Biso      1.000     C          -0.241928           
         C9        1.0000    0.19247   0.84753   0.49053   Biso      1.000     C          0.654068  
         C10       1.0000    0.28284   0.52206   0.67606   Biso      1.000     C          -0.082561           
         C11       1.0000    0.01904   0.02206   0.17606   Biso      1.000     C          -0.076814           
         C12       1.0000    0.03053   0.00947   0.65247   Biso      1.000     C          0.655263  
         C13       1.0000    0.01107   0.01143   0.08423   Biso      1.000     C          0.073544  
         C14       1.0000    0.68956   0.52184   0.24224   Biso      1.000     C          -0.239691           
         C15       1.0000    0.98096   0.97794   0.82394   Biso      1.000     C          -0.076814           
         C16       1.0000    0.31044   0.75776   0.47816   Biso      1.000     C          -0.23969  
         C17       1.0000    0.98893   0.98857   0.91577   Biso      1.000     C          0.073542  
         C18       1.0000    0.50000   0.57220   0.42780   Biso      1.000     C          -0.193923           
         C19       1.0000    0.71716   0.47794   0.32394   Biso      1.000     C          -0.08256  
         C20       1.0000    0.01904   0.17606   0.02206   Biso      1.000     C          -0.076783           
         C21       1.0000    0.96947   0.99053   0.34753   Biso      1.000     C          0.655263  
         C22       1.0000    0.39327   0.58423   0.51143   Biso      1.000     C          0.074532  
         C23       1.0000    0.00000   0.07220   0.92780   Biso      1.000     C          -0.20589  
         C24       1.0000    0.80753   0.15247   0.50947   Biso      1.000     C          0.654069  
         C25       1.0000    0.71716   0.32394   0.47794   Biso      1.000     C          -0.082562           
         C26       1.0000    0.95364   0.97816   0.25776   Biso      1.000     C          -0.241898           
         C27       1.0000    0.98893   0.91577   0.98857   Biso      1.000     C          0.073551  
         C28       1.0000    0.50000   0.42780   0.57220   Biso      1.000     C          -0.193926           
         C29       1.0000    0.60673   0.41577   0.48857   Biso      1.000     C          0.074542  
         C30       1.0000    0.01107   0.08423   0.01143   Biso      1.000     C          0.073551  
         C31       1.0000    0.39327   0.51143   0.58423   Biso      1.000     C          0.074542  
         C32       1.0000    0.04636   0.02184   0.74224   Biso      1.000     C          -0.241898           
         C33       1.0000    0.19247   0.49053   0.84753   Biso      1.000     C          0.65407   
         C34       1.0000    0.96947   0.34753   0.99053   Biso      1.000     C          0.655267  
         C35       1.0000    0.28284   0.67606   0.52206   Biso      1.000     C          -0.082561           
         C36       1.0000    0.98096   0.82394   0.97794   Biso      1.000     C          -0.076783           
         Cu1       1.0000    0.09987   0.45454   0.04546   Biso      1.000     Cu          0.880033  
         Cu2       1.0000    0.90013   0.54546   0.95454   Biso      1.000     Cu          0.880032  
         Cu3       1.0000    0.90013   0.95454   0.54546   Biso      1.000     Cu          0.880018  
         Cu4       1.0000    0.09987   0.04546   0.45454   Biso      1.000     Cu          0.880017  
         H1        1.0000    0.40350   0.43960   0.75900   Biso      1.000     H          0.147168  
         H2        1.0000    0.92750   0.93870   0.82350   Biso      1.000     H          0.123598  
         H3        1.0000    0.18970   0.67650   0.56130   Biso      1.000     H          0.12685   
         H4        1.0000    0.00000   0.12160   0.87840   Biso      1.000     H          0.140082  
         H5        1.0000    0.89790   0.93960   0.25900   Biso      1.000     H          0.147164  
         H6        1.0000    0.81030   0.43870   0.32350   Biso      1.000     H          0.126851  
         H7        1.0000    0.40350   0.75900   0.43960   Biso      1.000     H          0.147163  
         H8        1.0000    0.59650   0.56040   0.24100   Biso      1.000     H          0.147168  
         H9        1.0000    0.18970   0.56130   0.67650   Biso      1.000     H          0.126851  
         H10       1.0000    0.07250   0.17650   0.06130   Biso      1.000     H          0.123597  
         H11       1.0000    0.50000   0.62160   0.37840   Biso      1.000     H          0.126787  
         H12       1.0000    0.10210   0.06040   0.74100   Biso      1.000     H          0.147164  
         H13       1.0000    0.81030   0.32350   0.43870   Biso      1.000     H          0.12685   
         H14       1.0000    0.59650   0.24100   0.56040   Biso      1.000     H          0.147163  
         H15       1.0000    0.07250   0.06130   0.17650   Biso      1.000     H          0.123598  
         H16       1.0000    0.50000   0.37840   0.62160   Biso      1.000     H          0.126787  
         H17       1.0000    0.00000   0.87840   0.12160   Biso      1.000     H          0.140082  
         H18       1.0000    0.89790   0.25900   0.93960   Biso      1.000     H          0.14717   
         H19       1.0000    0.92750   0.82350   0.93870   Biso      1.000     H          0.123597  
         H20       1.0000    0.10210   0.74100   0.06040   Biso      1.000     H          0.147171  
         O1        1.0000    0.89024   0.42118   0.95294   Biso      1.000     O          -0.554473           
         O2        1.0000    0.23564   0.45294   0.92118   Biso      1.000     O          -0.55352  
         O3        1.0000    0.06636   0.53193   0.84435   Biso      1.000     O          -0.533454           
         O4        1.0000    0.10976   0.57882   0.04706   Biso      1.000     O          -0.554473           
         O5        1.0000    0.23564   0.92118   0.45294   Biso      1.000     O          -0.553517           
         O6        1.0000    0.10976   0.04706   0.57882   Biso      1.000     O          -0.554472           
         O7        1.0000    0.05736   0.34435   0.03193   Biso      1.000     O          -0.533344           
         O8        1.0000    0.93364   0.15565   0.46807   Biso      1.000     O          -0.533453           
         O9        1.0000    0.89024   0.95294   0.42118   Biso      1.000     O          -0.554473           
         O10       1.0000    0.06636   0.84435   0.53193   Biso      1.000     O          -0.533453           
         O11       1.0000    0.76436   0.07882   0.54706   Biso      1.000     O          -0.553517           
         O12       1.0000    0.94264   0.96807   0.65565   Biso      1.000     O          -0.533343           
         O13       1.0000    0.93364   0.46807   0.15565   Biso      1.000     O          -0.533454           
         O14       1.0000    0.76436   0.54706   0.07882   Biso      1.000     O          -0.55352  
         O15       1.0000    0.94264   0.65565   0.96807   Biso      1.000     O          -0.533344           
         O16       1.0000    0.05736   0.03193   0.34435   Biso      1.000     O          -0.533343 