
##########################################################################
#               Crystallographic Information Format file
#               Produced by PyCifRW module
#
#  This is a CIF file.  CIF has been adopted by the International
#  Union of Crystallography as the standard for data archiving and
#  transmission.
#
#  For information on this file format, follow the CIF links at
#  http://www.iucr.org
##########################################################################

data_image0

_cell_length_a                          11.446
_cell_length_b                          13.434
_cell_length_c                          15.352
_cell_angle_alpha                       79.59
_cell_angle_beta                        76.45
_cell_angle_gamma                       79.82
_symmetry_space_group_name_H-M          'P 1'
_symmetry_int_tables_number             1
loop_
  _symmetry_equiv_pos_as_xyz
         'x, y, z' 
loop_
  _atom_site_label
  _atom_site_occupancy
  _atom_site_fract_x
  _atom_site_fract_y
  _atom_site_fract_z
  _atom_site_thermal_displace_type
  _atom_site_B_iso_or_equiv
  _atom_site_type_symbol
  _atom_site_charge
         C1        1.0000    0.25670   0.84740   0.38190   Biso      1.000     C          -0.110366           
         C2        1.0000    0.57180   0.57450   0.65660   Biso      1.000     C          0.225183  
         C3        1.0000    0.42470   0.66720   0.77430   Biso      1.000     C          -0.16367400000000001          
         C4        1.0000    0.57960   0.59010   0.89000   Biso      1.000     C          0.17547000000000001           
         C5        1.0000    0.60580   0.57020   0.51680   Biso      1.000     C          0.25098899999999996           
         C6        1.0000    0.98840   0.57500   0.36120   Biso      1.000     C          0.212781  
         C7        1.0000    0.11410   0.79680   0.21830   Biso      1.000     C          0.136719  
         C8        1.0000    0.23390   0.80570   0.15900   Biso      1.000     C          0.252369  
         C9        1.0000    0.45320   0.89510   0.97120   Biso      1.000     C          0.08318500000000001           
         C10       1.0000    0.99940   0.68300   0.32090   Biso      1.000     C          0.170577  
         C11       1.0000    0.02200   0.41220   0.37950   Biso      1.000     C          0.248604  
         C12       1.0000    0.37970   0.84880   0.05350   Biso      1.000     C          0.250789  
         C13       1.0000    0.74060   0.81230   0.65030   Biso      1.000     C          0.07269   
         C14       1.0000    0.91590   0.86830   0.63880   Biso      1.000     C          0.08236399999999999           
         C15       1.0000    0.91470   0.70350   0.92540   Biso      1.000     C          0.064303  
         C16       1.0000    0.89000   0.71900   0.07430   Biso      1.000     C          0.091025  
         C17       1.0000    0.02160   0.63910   0.92740   Biso      1.000     C          -0.18745699999999998          
         C18       1.0000    0.97900   0.77060   0.63050   Biso      1.000     C          -0.177331           
         C19       1.0000    0.97700   0.12210   0.76660   Biso      1.000     C          -0.10291199999999999          
         C20       1.0000    0.09910   0.24000   0.65870   Biso      1.000     C          -0.137871           
         C21       1.0000    0.79720   0.71460   0.64220   Biso      1.000     C          -0.162509           
         C22       1.0000    0.08590   0.14280   0.70280   Biso      1.000     C          -0.082134           
         C23       1.0000    0.42140   0.12730   0.04880   Biso      1.000     C          -0.176513           
         C24       1.0000    0.06550   0.61120   0.00900   Biso      1.000     C          0.075919  
         C25       1.0000    0.53450   0.60700   0.74700   Biso      1.000     C          0.177324  
         C26       1.0000    0.99410   0.65370   0.08350   Biso      1.000     C          -0.173618           
         C27       1.0000    0.60980   0.60010   0.41760   Biso      1.000     C          0.097165  
         C28       1.0000    0.66780   0.53070   0.35690   Biso      1.000     C          -0.16350699999999999          
         C29       1.0000    0.25940   0.18770   0.34970   Biso      1.000     C          0.07269099999999999           
         C30       1.0000    0.08410   0.13170   0.36120   Biso      1.000     C          0.082365  
         C31       1.0000    0.08530   0.29650   0.07460   Biso      1.000     C          0.064303  
         C32       1.0000    0.11000   0.28100   0.92570   Biso      1.000     C          0.09102400000000001           
         C33       1.0000    0.97840   0.36090   0.07260   Biso      1.000     C          -0.18745799999999999          
         C34       1.0000    0.02100   0.22940   0.36950   Biso      1.000     C          -0.177331           
         C35       1.0000    0.02300   0.87790   0.23340   Biso      1.000     C          -0.102907           
         C36       1.0000    0.90090   0.76000   0.34130   Biso      1.000     C          -0.13787  
         C37       1.0000    0.20280   0.28540   0.35780   Biso      1.000     C          -0.16250799999999999          
         C38       1.0000    0.91410   0.85720   0.29720   Biso      1.000     C          -0.082138           
         C39       1.0000    0.57860   0.87270   0.95120   Biso      1.000     C          -0.176513           
         C40       1.0000    0.93450   0.38880   0.99100   Biso      1.000     C          0.075917  
         C41       1.0000    0.00590   0.34630   0.91650   Biso      1.000     C          -0.173618           
         C42       1.0000    0.46990   0.00280   0.82500   Biso      1.000     C          0.057134000000000004          
         C43       1.0000    0.39960   0.96330   0.90510   Biso      1.000     C          -0.16609000000000002          
         C44       1.0000    0.64280   0.91760   0.86990   Biso      1.000     C          0.085102  
         C45       1.0000    0.82300   0.45830   0.98820   Biso      1.000     C          0.24558000000000002           
         C46       1.0000    0.07940   0.30820   0.37030   Biso      1.000     C          0.090116  
         C47       1.0000    0.39350   0.69020   0.86220   Biso      1.000     C          -0.014974000000000001         
         C48       1.0000    0.46880   0.65180   0.91920   Biso      1.000     C          -0.15925799999999998          
         C49       1.0000    0.66700   0.54750   0.94560   Biso      1.000     C          0.225384  
         C50       1.0000    0.55580   0.71350   0.29230   Biso      1.000     C          0.056044000000000004          
         C51       1.0000    0.55450   0.69170   0.38440   Biso      1.000     C          -0.16268  
         C52       1.0000    0.67060   0.56130   0.26510   Biso      1.000     C          0.06890700000000001           
         C53       1.0000    0.53010   0.99720   0.17500   Biso      1.000     C          0.057134000000000004          
         C54       1.0000    0.74330   0.15260   0.61810   Biso      1.000     C          -0.110366           
         C55       1.0000    0.54680   0.10490   0.02880   Biso      1.000     C          0.08318500000000001           
         C56       1.0000    0.00060   0.31700   0.67910   Biso      1.000     C          0.170576  
         C57       1.0000    0.97800   0.58780   0.62050   Biso      1.000     C          0.248604  
         C58       1.0000    0.44420   0.28650   0.70770   Biso      1.000     C          0.056049  
         C59       1.0000    0.62030   0.15120   0.94650   Biso      1.000     C          0.25079   
         C60       1.0000    0.33300   0.45250   0.05440   Biso      1.000     C          0.225385  
         C61       1.0000    0.53120   0.34820   0.08080   Biso      1.000     C          -0.159281           
         C62       1.0000    0.88590   0.20320   0.78170   Biso      1.000     C          0.136723  
         C63       1.0000    0.46550   0.39300   0.25300   Biso      1.000     C          0.177325  
         C64       1.0000    0.44550   0.30830   0.61560   Biso      1.000     C          -0.162698           
         C65       1.0000    0.60650   0.30980   0.13780   Biso      1.000     C          -0.014950999999999999         
         C66       1.0000    0.01160   0.42500   0.63880   Biso      1.000     C          0.212781  
         C67       1.0000    0.32940   0.43870   0.73490   Biso      1.000     C          0.06890800000000001           
         C68       1.0000    0.60040   0.03670   0.09490   Biso      1.000     C          -0.16609100000000002          
         C69       1.0000    0.42820   0.42550   0.34340   Biso      1.000     C          0.225183  
         C70       1.0000    0.57530   0.33280   0.22570   Biso      1.000     C          -0.163679           
         C71       1.0000    0.35720   0.08240   0.13010   Biso      1.000     C          0.085102  
         C72       1.0000    0.33220   0.46930   0.64310   Biso      1.000     C          -0.163508           
         C73       1.0000    0.42040   0.40990   0.11000   Biso      1.000     C          0.175473  
         C74       1.0000    0.76610   0.19430   0.84100   Biso      1.000     C          0.252369  
         C75       1.0000    0.17700   0.54170   0.01180   Biso      1.000     C          0.24558000000000002           
         C76       1.0000    0.39420   0.42980   0.48320   Biso      1.000     C          0.25098899999999996           
         C77       1.0000    0.92060   0.69180   0.62970   Biso      1.000     C          0.090114  
         C78       1.0000    0.39020   0.39990   0.58240   Biso      1.000     C          0.09717999999999999           
         Cu1       1.0000    0.30141   0.97051   0.31503   Biso      1.000     Cu          0.228658  
         Cu2       1.0000    0.57254   0.66552   0.10620   Biso      1.000     Cu          0.308566  
         Cu3       1.0000    0.79979   0.36219   0.52077   Biso      1.000     Cu          0.35263   
         Cu4       1.0000    0.80799   0.48572   0.78257   Biso      1.000     Cu          0.311971  
         Cu5       1.0000    0.67236   0.37102   0.73054   Biso      1.000     Cu          0.295576  
         Cu6       1.0000    0.20021   0.63781   0.47923   Biso      1.000     Cu          0.35262899999999997           
         Cu7       1.0000    0.42746   0.33448   0.89380   Biso      1.000     Cu          0.308554  
         Cu8       1.0000    0.32764   0.62898   0.26946   Biso      1.000     Cu          0.295578  
         Cu9       1.0000    0.69859   0.02949   0.68497   Biso      1.000     Cu          0.228658  
         Cu10      1.0000    0.19201   0.51428   0.21743   Biso      1.000     Cu          0.311971  
         H1        1.0000    0.98300   0.36210   0.86080   Biso      1.000     H          0.110848  
         H2        1.0000    0.34310   0.17520   0.34490   Biso      1.000     H          0.089021  
         H3        1.0000    0.62730   0.30840   0.26560   Biso      1.000     H          0.131743  
         H4        1.0000    0.71460   0.51720   0.22500   Biso      1.000     H          0.08796699999999999           
         H5        1.0000    0.03950   0.07900   0.36510   Biso      1.000     H          0.09247000000000001           
         H6        1.0000    0.70340   0.46570   0.37790   Biso      1.000     H          0.119575  
         H7        1.0000    0.51600   0.73940   0.42270   Biso      1.000     H          0.13417   
         H8        1.0000    0.11260   0.28040   0.12870   Biso      1.000     H          0.085538  
         H9        1.0000    0.51390   0.77580   0.27150   Biso      1.000     H          0.076093  
         H10       1.0000    0.15410   0.25220   0.87510   Biso      1.000     H          0.07753   
         H11       1.0000    0.44760   0.66600   0.97840   Biso      1.000     H          0.10944300000000001           
         H12       1.0000    0.32130   0.73180   0.88140   Biso      1.000     H          0.11710699999999999           
         H13       1.0000    0.93440   0.38640   0.12490   Biso      1.000     H          0.123676  
         H14       1.0000    0.72700   0.90310   0.85900   Biso      1.000     H          0.096703  
         H15       1.0000    0.93730   0.24050   0.37440   Biso      1.000     H          0.121808  
         H16       1.0000    0.31580   0.98170   0.91600   Biso      1.000     H          0.13829   
         H17       1.0000    0.83010   0.74570   0.38260   Biso      1.000     H          0.13743   
         H18       1.0000    0.24900   0.33680   0.35460   Biso      1.000     H          0.12129100000000001           
         H19       1.0000    0.85130   0.91040   0.30920   Biso      1.000     H          0.12360499999999999           
         H20       1.0000    0.61910   0.82810   0.99180   Biso      1.000     H          0.106761  
         H21       1.0000    0.43120   0.04650   0.78290   Biso      1.000     H          0.092115  
         H22       1.0000    0.68420   0.01830   0.08400   Biso      1.000     H          0.138292  
         H23       1.0000    0.56880   0.95350   0.21710   Biso      1.000     H          0.092116  
         H24       1.0000    0.37270   0.69160   0.73440   Biso      1.000     H          0.131741  
         H25       1.0000    0.96050   0.92100   0.63490   Biso      1.000     H          0.092467  
         H26       1.0000    0.88740   0.71960   0.87130   Biso      1.000     H          0.085539  
         H27       1.0000    0.48610   0.22420   0.72850   Biso      1.000     H          0.076093  
         H28       1.0000    0.84590   0.74780   0.12490   Biso      1.000     H          0.07753099999999999           
         H29       1.0000    0.06560   0.61360   0.87510   Biso      1.000     H          0.123677  
         H30       1.0000    0.29660   0.53430   0.62210   Biso      1.000     H          0.119576  
         H31       1.0000    0.48400   0.26060   0.57730   Biso      1.000     H          0.134171  
         H32       1.0000    0.06270   0.75950   0.62560   Biso      1.000     H          0.121805  
         H33       1.0000    0.28540   0.48280   0.77500   Biso      1.000     H          0.08796699999999999           
         H34       1.0000    0.14870   0.08960   0.69080   Biso      1.000     H          0.123597  
         H35       1.0000    0.01700   0.63790   0.13920   Biso      1.000     H          0.110848  
         H36       1.0000    0.27300   0.09690   0.14100   Biso      1.000     H          0.096703  
         H37       1.0000    0.38090   0.17190   0.00820   Biso      1.000     H          0.106762  
         H38       1.0000    0.55240   0.33400   0.02160   Biso      1.000     H          0.109445  
         H39       1.0000    0.75100   0.66320   0.64540   Biso      1.000     H          0.12129100000000001           
         H40       1.0000    0.65690   0.82480   0.65510   Biso      1.000     H          0.089018  
         H41       1.0000    0.67870   0.26820   0.11860   Biso      1.000     H          0.117104  
         H42       1.0000    0.16990   0.25430   0.61740   Biso      1.000     H          0.137429  
         N1        1.0000    0.40790   0.01840   0.19570   Biso      1.000     N          -0.193436           
         N2        1.0000    0.89690   0.29970   0.73770   Biso      1.000     N          -0.28931399999999996          
         N3        1.0000    0.67170   0.25850   0.82570   Biso      1.000     N          -0.192879           
         N4        1.0000    0.84690   0.74470   0.99890   Biso      1.000     N          -0.276638           
         N5        1.0000    0.74170   0.12310   0.91720   Biso      1.000     N          -0.42192299999999994          
         N6        1.0000    0.59210   0.98160   0.80430   Biso      1.000     N          -0.193435           
         N7        1.0000    0.93100   0.50340   0.67300   Biso      1.000     N          -0.374896           
         N8        1.0000    0.20320   0.10940   0.34840   Biso      1.000     N          -0.186389           
         N9        1.0000    0.57390   0.23260   0.89270   Biso      1.000     N          -0.226644           
         N10       1.0000    0.15310   0.25530   0.00110   Biso      1.000     N          -0.27663899999999997          
         N11       1.0000    0.23730   0.49360   0.94230   Biso      1.000     N          -0.240708           
         N12       1.0000    0.23140   0.76840   0.42180   Biso      1.000     N          -0.344926           
         N13       1.0000    0.33760   0.43610   0.96920   Biso      1.000     N          -0.208352           
         N14       1.0000    0.61290   0.65170   0.23070   Biso      1.000     N          -0.219154           
         N15       1.0000    0.76270   0.50640   0.05770   Biso      1.000     N          -0.24070999999999998          
         N16       1.0000    0.66240   0.56390   0.03080   Biso      1.000     N          -0.208353           
         N17       1.0000    0.76760   0.48410   0.91340   Biso      1.000     N          -0.370958           
         N18       1.0000    0.61020   0.56840   0.80390   Biso      1.000     N          -0.327752           
         N19       1.0000    0.54890   0.63340   0.57920   Biso      1.000     N          -0.42923500000000003          
         N20       1.0000    0.63550   0.48460   0.64380   Biso      1.000     N          -0.2022   
         N21       1.0000    0.89920   0.54430   0.42690   Biso      1.000     N          -0.224179           
         N22       1.0000    0.92030   0.44200   0.43730   Biso      1.000     N          -0.204774           
         N23       1.0000    0.65860   0.47990   0.55340   Biso      1.000     N          -0.21103899999999998          
         N24       1.0000    0.38710   0.34830   0.76930   Biso      1.000     N          -0.21915199999999999          
         N25       1.0000    0.23240   0.51590   0.08660   Biso      1.000     N          -0.37096  
         N26       1.0000    0.45110   0.36660   0.42080   Biso      1.000     N          -0.42923599999999995          
         N27       1.0000    0.36450   0.51540   0.35620   Biso      1.000     N          -0.202202           
         N28       1.0000    0.10080   0.45570   0.57310   Biso      1.000     N          -0.224179           
         N29       1.0000    0.25830   0.87690   0.08280   Biso      1.000     N          -0.421921           
         N30       1.0000    0.07970   0.55800   0.56270   Biso      1.000     N          -0.204775           
         N31       1.0000    0.34140   0.52010   0.44660   Biso      1.000     N          -0.211038           
         N32       1.0000    0.32830   0.74150   0.17430   Biso      1.000     N          -0.192883           
         N33       1.0000    0.10310   0.70030   0.26230   Biso      1.000     N          -0.289315           
         N34       1.0000    0.42610   0.76740   0.10730   Biso      1.000     N          -0.226644           
         N35       1.0000    0.06900   0.49660   0.32700   Biso      1.000     N          -0.374898           
         N36       1.0000    0.76860   0.23160   0.57820   Biso      1.000     N          -0.344926           
         N37       1.0000    0.38980   0.43160   0.19610   Biso      1.000     N          -0.327753           
         N38       1.0000    0.79680   0.89060   0.65160   Biso      1.000     N          -0.18639 