
##########################################################################
#               Crystallographic Information Format file
#               Produced by PyCifRW module
#
#  This is a CIF file.  CIF has been adopted by the International
#  Union of Crystallography as the standard for data archiving and
#  transmission.
#
#  For information on this file format, follow the CIF links at
#  http://www.iucr.org
##########################################################################

data_image0

_cell_length_a                          10.4215
_cell_length_b                          10.5323
_cell_length_c                          22.2477
_cell_angle_alpha                       90
_cell_angle_beta                        90
_cell_angle_gamma                       90
_symmetry_space_group_name_H-M          'P 1'
_symmetry_int_tables_number             1
loop_
  _symmetry_equiv_pos_as_xyz
         'x, y, z' 
loop_
  _atom_site_label
  _atom_site_occupancy
  _atom_site_fract_x
  _atom_site_fract_y
  _atom_site_fract_z
  _atom_site_thermal_displace_type
  _atom_site_B_iso_or_equiv
  _atom_site_type_symbol
  _atom_site_charge
         C1        1.0000    0.44380   0.75050   0.20251   Biso      1.000     C          0.391279  
         C2        1.0000    0.25080   0.77230   0.94224   Biso      1.000     C          0.089762  
         C3        1.0000    0.25170   0.94830   0.86119   Biso      1.000     C          -0.5425939999999999           
         C4        1.0000    0.07180   0.39340   0.79278   Biso      1.000     C          0.046189  
         C5        1.0000    0.66140   0.17650   0.45411   Biso      1.000     C          -0.027068000000000002         
         C6        1.0000    0.12160   0.29560   0.75812   Biso      1.000     C          -0.022534000000000002         
         C7        1.0000    0.05620   0.24950   0.70251   Biso      1.000     C          0.391279  
         C8        1.0000    0.33860   0.67650   0.04589   Biso      1.000     C          -0.027068000000000002         
         C9        1.0000    0.23650   0.24070   0.77669   Biso      1.000     C          -0.073416           
         C10       1.0000    0.94380   0.74950   0.79749   Biso      1.000     C          0.39128   
         C11       1.0000    0.70420   0.78690   0.67247   Biso      1.000     C          -0.13276  
         C12       1.0000    0.34210   0.83500   0.97698   Biso      1.000     C          -0.036489           
         C13       1.0000    0.80220   0.32810   0.61325   Biso      1.000     C          0.195857  
         C14       1.0000    0.92820   0.89340   0.70722   Biso      1.000     C          0.046189  
         C15       1.0000    0.87840   0.79560   0.74188   Biso      1.000     C          -0.022534000000000002         
         C16       1.0000    0.23990   0.38370   0.85869   Biso      1.000     C          0.033066000000000005          
         C17       1.0000    0.19780   0.82810   0.88675   Biso      1.000     C          0.195856  
         C18       1.0000    0.76350   0.74070   0.72331   Biso      1.000     C          -0.073412           
         C19       1.0000    0.76010   0.88370   0.64131   Biso      1.000     C          0.033075  
         C20       1.0000    0.25110   0.61180   0.01124   Biso      1.000     C          3.2e-05   
         C21       1.0000    0.24830   0.05170   0.36119   Biso      1.000     C          -0.5425939999999999           
         C22       1.0000    0.55620   0.25050   0.29749   Biso      1.000     C          0.391279  
         C23       1.0000    0.65790   0.33500   0.52302   Biso      1.000     C          -0.036488           
         C24       1.0000    0.74920   0.27230   0.55776   Biso      1.000     C          0.089763  
         C25       1.0000    0.74830   0.44830   0.63881   Biso      1.000     C          -0.5425939999999999           
         C26       1.0000    0.74890   0.11180   0.48876   Biso      1.000     C          3.2e-05   
         C27       1.0000    0.69780   0.67190   0.11325   Biso      1.000     C          0.195857  
         C28       1.0000    0.73650   0.25930   0.22331   Biso      1.000     C          -0.073416           
         C29       1.0000    0.30220   0.17190   0.38675   Biso      1.000     C          0.195857  
         C30       1.0000    0.75170   0.55170   0.13881   Biso      1.000     C          -0.5425939999999999           
         C31       1.0000    0.26010   0.61630   0.35869   Biso      1.000     C          0.033067  
         C32       1.0000    0.24920   0.22770   0.44224   Biso      1.000     C          0.089763  
         C33       1.0000    0.26350   0.75930   0.27669   Biso      1.000     C          -0.073417           
         C34       1.0000    0.15790   0.16500   0.47698   Biso      1.000     C          -0.036489           
         C35       1.0000    0.37840   0.70440   0.25812   Biso      1.000     C          -0.022534000000000002         
         C36       1.0000    0.20420   0.71310   0.32753   Biso      1.000     C          -0.132748           
         C37       1.0000    0.75080   0.72770   0.05776   Biso      1.000     C          0.089763  
         C38       1.0000    0.83860   0.82350   0.95411   Biso      1.000     C          -0.027068000000000002         
         C39       1.0000    0.79580   0.21310   0.17247   Biso      1.000     C          -0.13275599999999999          
         C40       1.0000    0.42820   0.60660   0.29278   Biso      1.000     C          0.046189999999999995          
         C41       1.0000    0.73990   0.11630   0.14131   Biso      1.000     C          0.033075  
         C42       1.0000    0.75110   0.88820   0.98876   Biso      1.000     C          3.2e-05   
         C43       1.0000    0.62160   0.20440   0.24188   Biso      1.000     C          -0.022534000000000002         
         C44       1.0000    0.57180   0.10660   0.20722   Biso      1.000     C          0.046189999999999995          
         C45       1.0000    0.16140   0.32350   0.54589   Biso      1.000     C          -0.027068000000000002         
         C46       1.0000    0.29580   0.28690   0.82753   Biso      1.000     C          -0.132748           
         C47       1.0000    0.24890   0.38820   0.51124   Biso      1.000     C          3.2e-05   
         C48       1.0000    0.84210   0.66500   0.02302   Biso      1.000     C          -0.036489           
         Cd1       1.0000    0.47941   0.41949   0.40326   Biso      1.000     Cd          0.64237   
         Cd2       1.0000    0.52059   0.91949   0.09674   Biso      1.000     Cd          0.64237   
         Cd3       1.0000    0.02059   0.58051   0.90326   Biso      1.000     Cd          0.64237   
         Cd4       1.0000    0.97941   0.08051   0.59674   Biso      1.000     Cd          0.64237   
         H1        1.0000    0.72200   0.96710   0.97590   Biso      1.000     H          0.090171  
         H2        1.0000    0.22810   0.95510   0.81960   Biso      1.000     H          0.17838199999999999           
         H3        1.0000    0.86620   0.85910   0.91810   Biso      1.000     H          0.09757   
         H4        1.0000    0.77250   0.32600   0.24490   Biso      1.000     H          0.122931  
         H5        1.0000    0.50500   0.56920   0.28090   Biso      1.000     H          0.09829500000000001           
         H6        1.0000    0.13380   0.35910   0.58190   Biso      1.000     H          0.09757   
         H7        1.0000    0.87310   0.24760   0.15950   Biso      1.000     H          0.12121300000000002           
         H8        1.0000    0.22200   0.53290   0.02410   Biso      1.000     H          0.090171  
         H9        1.0000    0.37450   0.91210   0.96330   Biso      1.000     H          0.091301  
         H10       1.0000    0.21800   0.01970   0.88290   Biso      1.000     H          0.16605999999999999           
         H11       1.0000    0.99500   0.43080   0.78090   Biso      1.000     H          0.09829500000000001           
         H12       1.0000    0.62690   0.75240   0.65950   Biso      1.000     H          0.12121400000000002           
         H13       1.0000    0.63380   0.14090   0.41810   Biso      1.000     H          0.09757   
         H14       1.0000    0.00500   0.93080   0.71910   Biso      1.000     H          0.09829500000000001           
         H15       1.0000    0.72750   0.67400   0.74490   Biso      1.000     H          0.12293   
         H16       1.0000    0.78200   0.51970   0.61710   Biso      1.000     H          0.16605999999999999           
         H17       1.0000    0.28110   0.41450   0.89280   Biso      1.000     H          0.08516   
         H18       1.0000    0.21890   0.58550   0.39280   Biso      1.000     H          0.08516   
         H19       1.0000    0.71800   0.48030   0.11710   Biso      1.000     H          0.16605999999999999           
         H20       1.0000    0.28200   0.98030   0.38290   Biso      1.000     H          0.16605999999999999           
         H21       1.0000    0.27190   0.04490   0.31960   Biso      1.000     H          0.17838199999999999           
         H22       1.0000    0.71890   0.91450   0.60720   Biso      1.000     H          0.08516   
         H23       1.0000    0.77190   0.45510   0.68040   Biso      1.000     H          0.17838199999999999           
         H24       1.0000    0.36620   0.64090   0.08190   Biso      1.000     H          0.09757   
         H25       1.0000    0.37310   0.25240   0.84050   Biso      1.000     H          0.12121300000000002           
         H26       1.0000    0.27250   0.17400   0.75510   Biso      1.000     H          0.122931  
         H27       1.0000    0.34350   0.94720   0.86470   Biso      1.000     H          0.159712  
         H28       1.0000    0.77800   0.03290   0.47590   Biso      1.000     H          0.090171  
         H29       1.0000    0.15650   0.05280   0.36470   Biso      1.000     H          0.159712  
         H30       1.0000    0.49500   0.06920   0.21910   Biso      1.000     H          0.09829500000000001           
         H31       1.0000    0.84350   0.55280   0.13530   Biso      1.000     H          0.159712  
         H32       1.0000    0.12690   0.74760   0.34050   Biso      1.000     H          0.12121300000000002           
         H33       1.0000    0.27800   0.46710   0.52410   Biso      1.000     H          0.090171  
         H34       1.0000    0.22750   0.82600   0.25510   Biso      1.000     H          0.122931  
         H35       1.0000    0.72810   0.54490   0.18040   Biso      1.000     H          0.17838199999999999           
         H36       1.0000    0.12550   0.08790   0.46330   Biso      1.000     H          0.091301  
         H37       1.0000    0.87450   0.58790   0.03670   Biso      1.000     H          0.091301  
         H38       1.0000    0.78110   0.08550   0.10720   Biso      1.000     H          0.08516   
         H39       1.0000    0.65650   0.44720   0.63530   Biso      1.000     H          0.159712  
         H40       1.0000    0.62550   0.41210   0.53670   Biso      1.000     H          0.091301  
         N1        1.0000    0.70690   0.84050   0.04029   Biso      1.000     N          -0.296446           
         N2        1.0000    0.39900   0.23070   0.36398   Biso      1.000     N          -0.175643           
         N3        1.0000    0.37100   0.56380   0.34246   Biso      1.000     N          -0.203302           
         N4        1.0000    0.11510   0.21110   0.52908   Biso      1.000     N          -0.21381999999999998          
         N5        1.0000    0.29310   0.34050   0.45971   Biso      1.000     N          -0.296446           
         N6        1.0000    0.88490   0.71110   0.97092   Biso      1.000     N          -0.213821           
         N7        1.0000    0.89900   0.26930   0.63602   Biso      1.000     N          -0.175643           
         N8        1.0000    0.45500   0.18170   0.31351   Biso      1.000     N          -0.36194699999999996          
         N9        1.0000    0.62900   0.06380   0.15754   Biso      1.000     N          -0.20330299999999998          
         N10       1.0000    0.87100   0.93620   0.65754   Biso      1.000     N          -0.20330299999999998          
         N11       1.0000    0.04500   0.81830   0.81351   Biso      1.000     N          -0.36195700000000003          
         N12       1.0000    0.12900   0.43620   0.84246   Biso      1.000     N          -0.203302           
         N13       1.0000    0.20690   0.65950   0.95971   Biso      1.000     N          -0.296446           
         N14       1.0000    0.79310   0.15950   0.54029   Biso      1.000     N          -0.296446           
         N15       1.0000    0.10100   0.76930   0.86398   Biso      1.000     N          -0.17563299999999998          
         N16       1.0000    0.95500   0.31830   0.68649   Biso      1.000     N          -0.36194699999999996          
         N17       1.0000    0.61510   0.28890   0.47092   Biso      1.000     N          -0.21381999999999998          
         N18       1.0000    0.38490   0.78890   0.02908   Biso      1.000     N          -0.21381999999999998          
         N19       1.0000    0.60100   0.73070   0.13602   Biso      1.000     N          -0.175643           
         N20       1.0000    0.54500   0.68170   0.18649   Biso      1.000     N          -0.36194699999999996          
         O1        1.0000    0.89755   0.65310   0.82352   Biso      1.000     O          -0.523345           
         O2        1.0000    0.10245   0.15310   0.67648   Biso      1.000     O          -0.523345           
         O3        1.0000    0.39755   0.84690   0.17648   Biso      1.000     O          -0.523345           
         O4        1.0000    0.60245   0.34690   0.32352   Biso      1.000     O          -0.523345 