
##########################################################################
#               Crystallographic Information Format file
#               Produced by PyCifRW module
#
#  This is a CIF file.  CIF has been adopted by the International
#  Union of Crystallography as the standard for data archiving and
#  transmission.
#
#  For information on this file format, follow the CIF links at
#  http://www.iucr.org
##########################################################################

data_image0

_cell_length_a                          14.416
_cell_length_b                          14.7249
_cell_length_c                          14.7249
_cell_angle_alpha                       76.1358
_cell_angle_beta                        60.6915
_cell_angle_gamma                       60.6916
_symmetry_space_group_name_H-M          'P 1'
_symmetry_int_tables_number             1
loop_
  _symmetry_equiv_pos_as_xyz
         'x, y, z' 
loop_
  _atom_site_label
  _atom_site_occupancy
  _atom_site_fract_x
  _atom_site_fract_y
  _atom_site_fract_z
  _atom_site_thermal_displace_type
  _atom_site_B_iso_or_equiv
  _atom_site_type_symbol
  _atom_site_charge
         C1        1.0000    0.74510   0.83040   0.58160   Biso      1.000     C          -0.132603           
         C2        1.0000    0.93750   0.58450   0.45570   Biso      1.000     C          -0.157696           
         C3        1.0000    0.61730   0.06820   0.06560   Biso      1.000     C          0.085233  
         C4        1.0000    0.65710   0.66960   0.91840   Biso      1.000     C          -0.136517           
         C5        1.0000    0.98080   0.55500   0.17960   Biso      1.000     C          0.586226  
         C6        1.0000    0.50680   0.66060   0.62960   Biso      1.000     C          -0.111482           
         C7        1.0000    0.83260   0.87040   0.66060   Biso      1.000     C          -0.11395799999999999          
         C8        1.0000    0.16740   0.12960   0.33940   Biso      1.000     C          -0.11395799999999999          
         C9        1.0000    0.59490   0.86170   0.14230   Biso      1.000     C          0.614166  
         C10       1.0000    0.09890   0.63830   0.35770   Biso      1.000     C          0.6165149999999999  
         C11       1.0000    0.40510   0.13830   0.85770   Biso      1.000     C          0.614166  
         C12       1.0000    0.62080   0.12590   0.20190   Biso      1.000     C          -0.076516           
         C13       1.0000    0.53580   0.67960   0.44500   Biso      1.000     C          0.5881529999999999  
         C14       1.0000    0.86360   0.62960   0.83940   Biso      1.000     C          -0.112331           
         C15       1.0000    0.82270   0.79810   0.62590   Biso      1.000     C          -0.080492           
         C16       1.0000    0.68290   0.93440   0.56820   Biso      1.000     C          0.088001  
         C17       1.0000    0.39320   0.54430   0.08450   Biso      1.000     C          -0.161358           
         C18       1.0000    0.13640   0.37040   0.16060   Biso      1.000     C          -0.112331           
         C19       1.0000    0.25490   0.16960   0.41840   Biso      1.000     C          -0.132603           
         C20       1.0000    0.10750   0.47620   0.14680   Biso      1.000     C          -0.020208           
         C21       1.0000    0.52200   0.95570   0.41550   Biso      1.000     C          -0.160916           
         C22       1.0000    0.40710   0.02960   0.47300   Biso      1.000     C          0.060136  
         C23       1.0000    0.41630   0.35320   0.47620   Biso      1.000     C          -0.019258           
         C24       1.0000    0.76950   0.97620   0.64680   Biso      1.000     C          -0.019291           
         C25       1.0000    0.57550   0.08160   0.16960   Biso      1.000     C          -0.132154           
         C26       1.0000    0.55140   0.62590   0.70190   Biso      1.000     C          -0.079029           
         C27       1.0000    0.60680   0.45570   0.91550   Biso      1.000     C          -0.161358           
         C28       1.0000    0.61520   0.92590   0.43990   Biso      1.000     C          -0.055747000000000005         
         C29       1.0000    0.90110   0.36170   0.64230   Biso      1.000     C          0.6165149999999999  
         C30       1.0000    0.56330   0.02700   0.02960   Biso      1.000     C          0.062082000000000005          
         C31       1.0000    0.89250   0.52380   0.85320   Biso      1.000     C          -0.020208           
         C32       1.0000    0.70400   0.09890   0.99130   Biso      1.000     C          -0.152988           
         C33       1.0000    0.26280   0.14230   0.63830   Biso      1.000     C          0.617727  
         C34       1.0000    0.74890   0.56820   0.56560   Biso      1.000     C          0.087877  
         C35       1.0000    0.11990   0.47300   0.47040   Biso      1.000     C          0.05886   
         C36       1.0000    0.46420   0.32040   0.55500   Biso      1.000     C          0.588152  
         C37       1.0000    0.48100   0.57410   0.06010   Biso      1.000     C          -0.055062           
         C38       1.0000    0.54340   0.35770   0.86170   Biso      1.000     C          0.613857  
         C39       1.0000    0.05510   0.56010   0.42590   Biso      1.000     C          -0.057590999999999996         
         C40       1.0000    0.25110   0.43180   0.43440   Biso      1.000     C          0.087877  
         C41       1.0000    0.74570   0.14680   0.02380   Biso      1.000     C          -0.02157  
         C42       1.0000    0.21540   0.94500   0.32040   Biso      1.000     C          0.587639  
         C43       1.0000    0.49320   0.33940   0.37040   Biso      1.000     C          -0.111481           
         C44       1.0000    0.70580   0.59890   0.49130   Biso      1.000     C          -0.157427           
         C45       1.0000    0.78460   0.05500   0.67960   Biso      1.000     C          0.587639  
         C46       1.0000    0.83960   0.17960   0.94500   Biso      1.000     C          0.5887760000000001  
         C47       1.0000    0.80290   0.49130   0.90110   Biso      1.000     C          -0.154637           
         C48       1.0000    0.94490   0.43990   0.57410   Biso      1.000     C          -0.057590999999999996         
         C49       1.0000    0.16040   0.82040   0.05500   Biso      1.000     C          0.5887760000000001  
         C50       1.0000    0.47800   0.04430   0.58450   Biso      1.000     C          -0.160916           
         C51       1.0000    0.43670   0.97300   0.97040   Biso      1.000     C          0.062082000000000005          
         C52       1.0000    0.32670   0.41840   0.33040   Biso      1.000     C          -0.133426           
         C53       1.0000    0.54110   0.93990   0.07410   Biso      1.000     C          -0.054582000000000006         
         C54       1.0000    0.31710   0.06560   0.43180   Biso      1.000     C          0.088001  
         C55       1.0000    0.29600   0.90110   0.00870   Biso      1.000     C          -0.152989           
         C56       1.0000    0.74670   0.70190   0.87410   Biso      1.000     C          -0.076294           
         C57       1.0000    0.25330   0.29810   0.12590   Biso      1.000     C          -0.076294           
         C58       1.0000    0.59290   0.97040   0.52700   Biso      1.000     C          0.060136  
         C59       1.0000    0.51900   0.42590   0.93990   Biso      1.000     C          -0.055062           
         C60       1.0000    0.68550   0.56560   0.93180   Biso      1.000     C          0.087931  
         C61       1.0000    0.47770   0.91550   0.04430   Biso      1.000     C          -0.16281600000000002          
         C62       1.0000    0.30470   0.99130   0.40110   Biso      1.000     C          -0.157853           
         C63       1.0000    0.73720   0.85770   0.36170   Biso      1.000     C          0.617727  
         C64       1.0000    0.29420   0.40110   0.50870   Biso      1.000     C          -0.157427           
         C65       1.0000    0.17730   0.20190   0.37410   Biso      1.000     C          -0.080492           
         C66       1.0000    0.70300   0.16060   0.12960   Biso      1.000     C          -0.116976           
         C67       1.0000    0.45660   0.64230   0.13830   Biso      1.000     C          0.613857  
         C68       1.0000    0.34290   0.33040   0.08160   Biso      1.000     C          -0.136517           
         C69       1.0000    0.06250   0.41550   0.54430   Biso      1.000     C          -0.157696           
         C70       1.0000    0.52230   0.08450   0.95570   Biso      1.000     C          -0.16281600000000002          
         C71       1.0000    0.29700   0.83940   0.87040   Biso      1.000     C          -0.11698  
         C72       1.0000    0.37920   0.87410   0.79810   Biso      1.000     C          -0.076511           
         C73       1.0000    0.40970   0.47040   0.02700   Biso      1.000     C          0.058266  
         C74       1.0000    0.69530   0.00870   0.59890   Biso      1.000     C          -0.157854           
         C75       1.0000    0.58370   0.64680   0.52380   Biso      1.000     C          -0.019257           
         C76       1.0000    0.19710   0.50870   0.09890   Biso      1.000     C          -0.154637           
         C77       1.0000    0.31450   0.43440   0.06820   Biso      1.000     C          0.087931  
         C78       1.0000    0.42450   0.91840   0.83040   Biso      1.000     C          -0.132159           
         C79       1.0000    0.45890   0.06010   0.92590   Biso      1.000     C          -0.054582000000000006         
         C80       1.0000    0.23050   0.02380   0.35320   Biso      1.000     C          -0.019291           
         C81       1.0000    0.59030   0.52960   0.97300   Biso      1.000     C          0.058266  
         C82       1.0000    0.67330   0.58160   0.66960   Biso      1.000     C          -0.133426           
         C83       1.0000    0.01920   0.44500   0.82040   Biso      1.000     C          0.586226  
         C84       1.0000    0.25430   0.85320   0.97620   Biso      1.000     C          -0.02157  
         C85       1.0000    0.88010   0.52700   0.52960   Biso      1.000     C          0.05886   
         C86       1.0000    0.44860   0.37410   0.29810   Biso      1.000     C          -0.079029           
         C87       1.0000    0.38480   0.07410   0.56010   Biso      1.000     C          -0.055747000000000005         
         C88       1.0000    0.38270   0.93180   0.93440   Biso      1.000     C          0.08523700000000001           
         Cd1       1.0000    0.96748   0.78029   0.18939   Biso      1.000     Cd          1.076426  
         Cd2       1.0000    0.56284   0.28029   0.68939   Biso      1.000     Cd          1.075787  
         Cd3       1.0000    0.74777   0.68939   0.21971   Biso      1.000     Cd          1.075839  
         Cd4       1.0000    0.84313   0.18939   0.71971   Biso      1.000     Cd          1.07538   
         Cd5       1.0000    0.15687   0.81061   0.28029   Biso      1.000     Cd          1.07538   
         Cd6       1.0000    0.03252   0.21971   0.81061   Biso      1.000     Cd          1.076426  
         Cd7       1.0000    0.25223   0.31061   0.78029   Biso      1.000     Cd          1.075839  
         Cd8       1.0000    0.43716   0.71971   0.31061   Biso      1.000     Cd          1.075787  
         H1        1.0000    0.73370   0.08770   0.92090   Biso      1.000     H          0.12211   
         H2        1.0000    0.65460   0.07910   0.58770   Biso      1.000     H          0.123551  
         H3        1.0000    0.48270   0.93890   0.78150   Biso      1.000     H          0.11030699999999999           
         H4        1.0000    0.11860   0.15150   0.30670   Biso      1.000     H          0.126693  
         H5        1.0000    0.27010   0.80670   0.84850   Biso      1.000     H          0.127123  
         H6        1.0000    0.42530   0.69330   0.65150   Biso      1.000     H          0.12382699999999999           
         H7        1.0000    0.32040   0.57510   0.14150   Biso      1.000     H          0.121303  
         H8        1.0000    0.46190   0.85850   0.07510   Biso      1.000     H          0.121277  
         H9        1.0000    0.29690   0.43890   0.28150   Biso      1.000     H          0.11151900000000001           
         H10       1.0000    0.10450   0.35850   0.57510   Biso      1.000     H          0.12004400000000001           
         H11       1.0000    0.70310   0.56110   0.71850   Biso      1.000     H          0.11151900000000001           
         H12       1.0000    0.88140   0.84850   0.69330   Biso      1.000     H          0.126693  
         H13       1.0000    0.50000   0.36790   0.22730   Biso      1.000     H          0.109507  
         H14       1.0000    0.72990   0.19330   0.15150   Biso      1.000     H          0.127123  
         H15       1.0000    0.50000   0.63210   0.77270   Biso      1.000     H          0.109507  
         H16       1.0000    0.59520   0.13210   0.27270   Biso      1.000     H          0.108713  
         H17       1.0000    0.34540   0.92090   0.41230   Biso      1.000     H          0.123551  
         H18       1.0000    0.73580   0.78150   0.56110   Biso      1.000     H          0.111451  
         H19       1.0000    0.27270   0.22730   0.13210   Biso      1.000     H          0.10911300000000002           
         H20       1.0000    0.75770   0.58770   0.42090   Biso      1.000     H          0.12321199999999999           
         H21       1.0000    0.07680   0.34850   0.19330   Biso      1.000     H          0.12403   
         H22       1.0000    0.46300   0.07510   0.64150   Biso      1.000     H          0.12029100000000001           
         H23       1.0000    0.92320   0.65150   0.80670   Biso      1.000     H          0.12403   
         H24       1.0000    0.82140   0.42090   0.91230   Biso      1.000     H          0.122886  
         H25       1.0000    0.51730   0.06110   0.21850   Biso      1.000     H          0.11030699999999999           
         H26       1.0000    0.13210   0.27270   0.36790   Biso      1.000     H          0.10959   
         H27       1.0000    0.17860   0.57910   0.08770   Biso      1.000     H          0.122886  
         H28       1.0000    0.24230   0.41230   0.57910   Biso      1.000     H          0.12321199999999999           
         H29       1.0000    0.86790   0.72730   0.63210   Biso      1.000     H          0.10959   
         H30       1.0000    0.57470   0.30670   0.34850   Biso      1.000     H          0.12382699999999999           
         H31       1.0000    0.53810   0.14150   0.92490   Biso      1.000     H          0.121277  
         H32       1.0000    0.26420   0.21850   0.43890   Biso      1.000     H          0.111451  
         H33       1.0000    0.67960   0.42490   0.85850   Biso      1.000     H          0.121303  
         H34       1.0000    0.72730   0.77270   0.86790   Biso      1.000     H          0.10911300000000002           
         H35       1.0000    0.89550   0.64150   0.42490   Biso      1.000     H          0.12004400000000001           
         H36       1.0000    0.57840   0.71850   0.93890   Biso      1.000     H          0.111897  
         H37       1.0000    0.26630   0.91230   0.07910   Biso      1.000     H          0.12211   
         H38       1.0000    0.40480   0.86790   0.72730   Biso      1.000     H          0.108713  
         H39       1.0000    0.42160   0.28150   0.06110   Biso      1.000     H          0.111897  
         H40       1.0000    0.53700   0.92490   0.35850   Biso      1.000     H          0.12029100000000001           
         O1        1.0000    0.17882   0.12158   0.66398   Biso      1.000     O          -0.5484020000000001           
         O2        1.0000    0.53562   0.62158   0.16398   Biso      1.000     O          -0.54496  
         O3        1.0000    0.16671   0.97013   0.26185   Biso      1.000     O          -0.516712           
         O4        1.0000    0.86316   0.23815   0.97013   Biso      1.000     O          -0.518594           
         O5        1.0000    0.95777   0.64784   0.14342   Biso      1.000     O          -0.610775           
         O6        1.0000    0.46438   0.37842   0.83602   Biso      1.000     O          -0.54496  
         O7        1.0000    0.60561   0.64342   0.35216   Biso      1.000     O          -0.611896           
         O8        1.0000    0.53430   0.82082   0.21558   Biso      1.000     O          -0.62283  
         O9        1.0000    0.82118   0.87842   0.33602   Biso      1.000     O          -0.5484020000000001           
         O10       1.0000    0.24903   0.85216   0.35658   Biso      1.000     O          -0.611513           
         O11       1.0000    0.42856   0.73815   0.47013   Biso      1.000     O          -0.517486           
         O12       1.0000    0.46570   0.17918   0.78442   Biso      1.000     O          -0.62283  
         O13       1.0000    0.57144   0.26185   0.52987   Biso      1.000     O          -0.517486           
         O14       1.0000    0.74988   0.78442   0.32082   Biso      1.000     O          -0.623545           
         O15       1.0000    0.89881   0.14342   0.85216   Biso      1.000     O          -0.610628           
         O16       1.0000    0.10119   0.85658   0.14784   Biso      1.000     O          -0.610628           
         O17       1.0000    0.13684   0.76185   0.02987   Biso      1.000     O          -0.518594           
         O18       1.0000    0.75097   0.14784   0.64342   Biso      1.000     O          -0.611513           
         O19       1.0000    0.25012   0.21558   0.67918   Biso      1.000     O          -0.623545           
         O20       1.0000    0.64488   0.28442   0.82082   Biso      1.000     O          -0.622115           
         O21       1.0000    0.10131   0.47013   0.76185   Biso      1.000     O          -0.516442           
         O22       1.0000    0.15720   0.66398   0.37842   Biso      1.000     O          -0.546455           
         O23       1.0000    0.92930   0.32082   0.71558   Biso      1.000     O          -0.623951           
         O24       1.0000    0.04223   0.35216   0.85658   Biso      1.000     O          -0.610775           
         O25       1.0000    0.39439   0.35658   0.64784   Biso      1.000     O          -0.611896           
         O26       1.0000    0.30040   0.16398   0.87842   Biso      1.000     O          -0.5462359999999999           
         O27       1.0000    0.83329   0.02987   0.73815   Biso      1.000     O          -0.516712           
         O28       1.0000    0.35512   0.71558   0.17918   Biso      1.000     O          -0.622115           
         O29       1.0000    0.84280   0.33602   0.62158   Biso      1.000     O          -0.546455           
         O30       1.0000    0.89869   0.52987   0.23815   Biso      1.000     O          -0.516442           
         O31       1.0000    0.07070   0.67918   0.28442   Biso      1.000     O          -0.623951           
         O32       1.0000    0.69960   0.83602   0.12158   Biso      1.000     O          -0.5462359999999999 