
##########################################################################
#               Crystallographic Information Format file
#               Produced by PyCifRW module
#
#  This is a CIF file.  CIF has been adopted by the International
#  Union of Crystallography as the standard for data archiving and
#  transmission.
#
#  For information on this file format, follow the CIF links at
#  http://www.iucr.org
##########################################################################

data_image0

_cell_length_a                          6.682
_cell_length_b                          11.0483
_cell_length_c                          17.638
_cell_angle_alpha                       107.833
_cell_angle_beta                        90
_cell_angle_gamma                       90
_symmetry_space_group_name_H-M          'P 1'
_symmetry_int_tables_number             1
loop_
  _symmetry_equiv_pos_as_xyz
         'x, y, z' 
loop_
  _atom_site_label
  _atom_site_occupancy
  _atom_site_fract_x
  _atom_site_fract_y
  _atom_site_fract_z
  _atom_site_thermal_displace_type
  _atom_site_B_iso_or_equiv
  _atom_site_type_symbol
  _atom_site_charge
         C1        1.0000    0.88790   0.04460   0.68600   Biso      1.000     C          -0.071052           
         C2        1.0000    0.32550   0.31530   0.33010   Biso      1.000     C          0.630323  
         C3        1.0000    0.61210   0.04460   0.18600   Biso      1.000     C          -0.07105299999999999          
         C4        1.0000    0.93510   0.14450   0.75280   Biso      1.000     C          -0.120861           
         C5        1.0000    0.06910   0.91090   0.03430   Biso      1.000     C          -0.163347           
         C6        1.0000    0.24970   0.16920   0.69390   Biso      1.000     C          -0.18375999999999998          
         C7        1.0000    0.20300   0.07000   0.62610   Biso      1.000     C          0.085458  
         C8        1.0000    0.38230   0.20750   0.25730   Biso      1.000     C          -0.034125           
         C9        1.0000    0.47810   0.00620   0.12240   Biso      1.000     C          -0.129443           
         C10       1.0000    0.52190   0.99380   0.87760   Biso      1.000     C          -0.129444           
         C11       1.0000    0.66760   0.74480   0.45580   Biso      1.000     C          0.6201369999999999  
         C12       1.0000    0.29700   0.07000   0.12610   Biso      1.000     C          0.085458  
         C13       1.0000    0.41890   0.12250   0.52370   Biso      1.000     C          -0.047838           
         C14       1.0000    0.67450   0.68470   0.66990   Biso      1.000     C          0.630323  
         C15       1.0000    0.97810   0.99380   0.37760   Biso      1.000     C          -0.129444           
         C16       1.0000    0.11210   0.95540   0.31400   Biso      1.000     C          -0.071052           
         C17       1.0000    0.11770   0.20750   0.75730   Biso      1.000     C          -0.034124           
         C18       1.0000    0.08110   0.12250   0.02370   Biso      1.000     C          -0.047838           
         C19       1.0000    0.17450   0.31530   0.83010   Biso      1.000     C          0.630323  
         C20       1.0000    0.43510   0.85550   0.74720   Biso      1.000     C          -0.12086300000000001          
         C21       1.0000    0.82550   0.68470   0.16990   Biso      1.000     C          0.630323  
         C22       1.0000    0.02190   0.00620   0.62240   Biso      1.000     C          -0.129443           
         C23       1.0000    0.83240   0.74480   0.95580   Biso      1.000     C          0.6201369999999999  
         C24       1.0000    0.14960   0.03310   0.05930   Biso      1.000     C          0.051301  
         C25       1.0000    0.06490   0.85550   0.24720   Biso      1.000     C          -0.120861           
         C26       1.0000    0.61770   0.79250   0.74270   Biso      1.000     C          -0.034125           
         C27       1.0000    0.74970   0.83080   0.80610   Biso      1.000     C          -0.183759           
         C28       1.0000    0.38790   0.95540   0.81400   Biso      1.000     C          -0.07105  
         C29       1.0000    0.85040   0.96690   0.94070   Biso      1.000     C          0.051301  
         C30       1.0000    0.35040   0.03310   0.55930   Biso      1.000     C          0.051301  
         C31       1.0000    0.64960   0.96690   0.44070   Biso      1.000     C          0.051301  
         C32       1.0000    0.79700   0.93000   0.37390   Biso      1.000     C          0.085458  
         C33       1.0000    0.88230   0.79250   0.24270   Biso      1.000     C          -0.034125           
         C34       1.0000    0.91890   0.87750   0.97630   Biso      1.000     C          -0.047838           
         C35       1.0000    0.56910   0.08910   0.46570   Biso      1.000     C          -0.163346           
         C36       1.0000    0.25030   0.16920   0.19390   Biso      1.000     C          -0.183759           
         C37       1.0000    0.43090   0.91090   0.53430   Biso      1.000     C          -0.163347           
         C38       1.0000    0.58110   0.87750   0.47630   Biso      1.000     C          -0.047838           
         C39       1.0000    0.56490   0.14450   0.25280   Biso      1.000     C          -0.12086  
         C40       1.0000    0.75030   0.83080   0.30610   Biso      1.000     C          -0.183759           
         C41       1.0000    0.16760   0.25520   0.04420   Biso      1.000     C          0.6201369999999999  
         C42       1.0000    0.93090   0.08910   0.96570   Biso      1.000     C          -0.163346           
         C43       1.0000    0.70300   0.93000   0.87390   Biso      1.000     C          0.08545900000000001           
         C44       1.0000    0.33240   0.25520   0.54420   Biso      1.000     C          0.6201369999999999  
         Cd1       1.0000    0.99647   0.53468   0.40973   Biso      1.000     Cd          1.103861  
         Cd2       1.0000    0.00353   0.46532   0.59027   Biso      1.000     Cd          1.103861  
         Cd3       1.0000    0.50353   0.53468   0.90973   Biso      1.000     Cd          1.1038620000000001  
         Cd4       1.0000    0.49647   0.46532   0.09027   Biso      1.000     Cd          1.1038620000000001  
         Cd5       1.0000    0.50000   0.50000   0.50000   Biso      1.000     Cd          1.105329  
         Cd6       1.0000    0.00000   0.50000   0.00000   Biso      1.000     Cd          1.105329  
         H1        1.0000    0.15510   0.83020   0.20520   Biso      1.000     H          0.11001   
         H2        1.0000    0.69300   0.35800   0.95200   Biso      1.000     H          0.44105600000000006           
         H3        1.0000    0.65510   0.16980   0.29480   Biso      1.000     H          0.11001   
         H4        1.0000    0.61610   0.14980   0.44330   Biso      1.000     H          0.123083  
         H5        1.0000    0.80700   0.35800   0.45200   Biso      1.000     H          0.44105600000000006           
         H6        1.0000    0.26620   0.99730   0.81660   Biso      1.000     H          0.104775  
         H7        1.0000    0.00980   0.06160   0.42220   Biso      1.000     H          0.118628  
         H8        1.0000    0.49020   0.06160   0.92220   Biso      1.000     H          0.118628  
         H9        1.0000    0.99020   0.93840   0.57780   Biso      1.000     H          0.118628  
         H10       1.0000    0.88390   0.14980   0.94330   Biso      1.000     H          0.123083  
         H11       1.0000    0.37190   0.21070   0.69680   Biso      1.000     H          0.121188  
         H12       1.0000    0.23380   0.99730   0.31660   Biso      1.000     H          0.104775  
         H13       1.0000    0.38390   0.85020   0.55670   Biso      1.000     H          0.123083  
         H14       1.0000    0.19300   0.64200   0.54800   Biso      1.000     H          0.44105600000000006           
         H15       1.0000    0.84490   0.16980   0.79480   Biso      1.000     H          0.11001099999999998           
         H16       1.0000    0.76620   0.00270   0.68340   Biso      1.000     H          0.104775  
         H17       1.0000    0.73380   0.00270   0.18340   Biso      1.000     H          0.104775  
         H18       1.0000    0.30700   0.64200   0.04800   Biso      1.000     H          0.44105600000000006           
         H19       1.0000    0.11610   0.85020   0.05670   Biso      1.000     H          0.123083  
         H20       1.0000    0.62810   0.78930   0.30320   Biso      1.000     H          0.121188  
         H21       1.0000    0.34490   0.83020   0.70520   Biso      1.000     H          0.11001099999999998           
         H22       1.0000    0.87190   0.78930   0.80320   Biso      1.000     H          0.121188  
         H23       1.0000    0.50980   0.93840   0.07780   Biso      1.000     H          0.118628  
         H24       1.0000    0.12810   0.21070   0.19680   Biso      1.000     H          0.121188  
         O1        1.0000    0.04370   0.34510   0.06530   Biso      1.000     O          -0.625763           
         O2        1.0000    0.31410   0.56840   0.02177   Biso      1.000     O          -0.9505049999999999           
         O3        1.0000    0.54370   0.65490   0.43470   Biso      1.000     O          -0.625763           
         O4        1.0000    0.85130   0.73270   0.46144   Biso      1.000     O          -0.556502           
         O5        1.0000    0.68590   0.43160   0.97823   Biso      1.000     O          -0.9505049999999999           
         O6        1.0000    0.66370   0.63270   0.17030   Biso      1.000     O          -0.585275           
         O7        1.0000    0.94480   0.65850   0.11280   Biso      1.000     O          -0.594016           
         O8        1.0000    0.33630   0.36730   0.82970   Biso      1.000     O          -0.585275           
         O9        1.0000    0.95630   0.65490   0.93470   Biso      1.000     O          -0.625763           
         O10       1.0000    0.55520   0.65850   0.61280   Biso      1.000     O          -0.594016           
         O11       1.0000    0.16370   0.36730   0.32970   Biso      1.000     O          -0.585275           
         O12       1.0000    0.35130   0.26730   0.03856   Biso      1.000     O          -0.556502           
         O13       1.0000    0.45630   0.34510   0.56530   Biso      1.000     O          -0.625763           
         O14       1.0000    0.05520   0.34150   0.88720   Biso      1.000     O          -0.594017           
         O15       1.0000    0.14870   0.26730   0.53856   Biso      1.000     O          -0.556502           
         O16       1.0000    0.44480   0.34150   0.38720   Biso      1.000     O          -0.594016           
         O17       1.0000    0.81410   0.43160   0.47823   Biso      1.000     O          -0.9505049999999999           
         O18       1.0000    0.83630   0.63270   0.67030   Biso      1.000     O          -0.585275           
         O19       1.0000    0.18590   0.56840   0.52177   Biso      1.000     O          -0.9505049999999999           
         O20       1.0000    0.64870   0.73270   0.96144   Biso      1.000     O          -0.556502 