
##########################################################################
#               Crystallographic Information Format file
#               Produced by PyCifRW module
#
#  This is a CIF file.  CIF has been adopted by the International
#  Union of Crystallography as the standard for data archiving and
#  transmission.
#
#  For information on this file format, follow the CIF links at
#  http://www.iucr.org
##########################################################################

data_image0

_cell_length_a                          12.2679
_cell_length_b                          13.9199
_cell_length_c                          13.9199
_cell_angle_alpha                       78.8032
_cell_angle_beta                        63.8541
_cell_angle_gamma                       63.8541
_symmetry_space_group_name_H-M          'P 1'
_symmetry_int_tables_number             1
loop_
  _symmetry_equiv_pos_as_xyz
         'x, y, z' 
loop_
  _atom_site_label
  _atom_site_occupancy
  _atom_site_fract_x
  _atom_site_fract_y
  _atom_site_fract_z
  _atom_site_thermal_displace_type
  _atom_site_B_iso_or_equiv
  _atom_site_type_symbol
  _atom_site_charge
         C1        1.0000    0.35980   0.92990   0.27490   Biso      1.000     C          0.078001  
         C2        1.0000    0.63470   0.72510   0.92990   Biso      1.000     C          0.073165  
         C3        1.0000    0.51760   0.70700   0.98020   Biso      1.000     C          0.063129  
         C4        1.0000    0.54070   0.67070   0.81770   Biso      1.000     C          0.06395   
         C5        1.0000    0.65720   0.68730   0.76670   Biso      1.000     C          0.041394  
         C6        1.0000    0.07750   0.81720   0.15940   Biso      1.000     C          0.574814  
         C7        1.0000    0.88050   0.78190   0.18510   Biso      1.000     C          0.062521  
         C8        1.0000    0.91210   0.64200   0.10020   Biso      1.000     C          0.055753  
         C9        1.0000    0.68680   0.75880   0.98860   Biso      1.000     C          0.571809  
         C10       1.0000    0.04660   0.61500   0.05360   Biso      1.000     C          0.047169  
         C11       1.0000    0.28970   0.27490   0.07010   Biso      1.000     C          0.078523  
         C12       1.0000    0.20480   0.29300   0.01980   Biso      1.000     C          0.05936   
         C13       1.0000    0.02910   0.32930   0.18230   Biso      1.000     C          0.065955  
         C14       1.0000    0.11120   0.31270   0.23330   Biso      1.000     C          0.038417  
         C15       1.0000    0.05410   0.18280   0.84060   Biso      1.000     C          0.578343  
         C16       1.0000    0.90690   0.24530   0.86190   Biso      1.000     C          0.063804  
         C17       1.0000    0.84750   0.21810   0.81490   Biso      1.000     C          0.062589  
         C18       1.0000    0.43420   0.24120   0.01140   Biso      1.000     C          0.56833   
         C19       1.0000    0.65430   0.35800   0.89980   Biso      1.000     C          0.055739  
         C20       1.0000    0.66160   0.05360   0.38500   Biso      1.000     C          0.04394   
         C21       1.0000    0.66240   0.18510   0.21810   Biso      1.000     C          0.061208  
         C22       1.0000    0.67540   0.01140   0.75880   Biso      1.000     C          0.568681  
         C23       1.0000    0.56460   0.07010   0.72510   Biso      1.000     C          0.077667  
         C24       1.0000    0.49780   0.01980   0.70700   Biso      1.000     C          0.059475  
         C25       1.0000    0.35840   0.18230   0.67070   Biso      1.000     C          0.062706  
         C26       1.0000    0.42390   0.23330   0.68730   Biso      1.000     C          0.041997  
         C27       1.0000    0.23690   0.84060   0.81720   Biso      1.000     C          0.575514  
         C28       1.0000    0.15220   0.86190   0.75470   Biso      1.000     C          0.064546  
         C29       1.0000    0.55410   0.10020   0.35800   Biso      1.000     C          0.056037  
         C30       1.0000    0.06560   0.81490   0.78190   Biso      1.000     C          0.062631  
         C31       1.0000    0.10020   0.94640   0.61500   Biso      1.000     C          0.048236  
         C32       1.0000    0.44560   0.98860   0.24120   Biso      1.000     C          0.567141  
         C33       1.0000    0.22460   0.98020   0.29300   Biso      1.000     C          0.060601  
         C34       1.0000    0.21140   0.81770   0.32930   Biso      1.000     C          0.064684  
         C35       1.0000    0.34450   0.76670   0.31270   Biso      1.000     C          0.03985   
         C36       1.0000    0.89470   0.15940   0.18280   Biso      1.000     C          0.576577  
         C37       1.0000    0.76880   0.13810   0.24530   Biso      1.000     C          0.064065  
         C38       1.0000    0.01230   0.89980   0.64200   Biso      1.000     C          0.056329  
         C39       1.0000    0.71520   0.38500   0.94640   Biso      1.000     C          0.044652  
         C40       1.0000    0.01410   0.75470   0.13810   Biso      1.000     C          0.065993  
         H1        1.0000    0.05750   0.76830   0.83990   Biso      1.000     H          0.124484  
         H2        1.0000    0.96470   0.91410   0.60050   Biso      1.000     H          0.116617  
         H3        1.0000    0.66710   0.44480   0.99060   Biso      1.000     H          0.110317  
         H4        1.0000    0.56520   0.39950   0.91410   Biso      1.000     H          0.117551  
         H5        1.0000    0.89740   0.16010   0.76830   Biso      1.000     H          0.124416  
         H6        1.0000    0.07570   0.32000   0.30720   Biso      1.000     H          0.104586  
         H7        1.0000    0.23990   0.28660   0.94580   Biso      1.000     H          0.122788  
         H8        1.0000    0.10250   0.55520   0.00940   Biso      1.000     H          0.110092  
         H9        1.0000    0.87880   0.60050   0.08590   Biso      1.000     H          0.115409  
         H10       1.0000    0.82580   0.83990   0.23170   Biso      1.000     H          0.124573  
         H11       1.0000    0.70290   0.68000   0.69280   Biso      1.000     H          0.103312  
         H12       1.0000    0.51030   0.65200   0.77660   Biso      1.000     H          0.11116   
         H13       1.0000    0.93890   0.34800   0.22340   Biso      1.000     H          0.110742  
         H14       1.0000    0.65770   0.00940   0.44480   Biso      1.000     H          0.110103  
         H15       1.0000    0.47230   0.71340   0.05420   Biso      1.000     H          0.122985  
         H16       1.0000    0.28690   0.22340   0.65200   Biso      1.000     H          0.111427  
         H17       1.0000    0.52650   0.94580   0.71340   Biso      1.000     H          0.123422  
         H18       1.0000    0.18570   0.05420   0.28660   Biso      1.000     H          0.12276   
         H19       1.0000    0.11190   0.99060   0.55520   Biso      1.000     H          0.110216  
         H20       1.0000    0.39570   0.30720   0.68000   Biso      1.000     H          0.103691  
         H21       1.0000    0.38290   0.69280   0.32000   Biso      1.000     H          0.103967  
         H22       1.0000    0.66570   0.23170   0.16010   Biso      1.000     H          0.124272  
         H23       1.0000    0.47930   0.08590   0.39950   Biso      1.000     H          0.116281  
         H24       1.0000    0.16230   0.77660   0.34800   Biso      1.000     H          0.111264  
         N1        1.0000    0.23980   0.28660   0.17680   Biso      1.000     N          -0.199597           
         N2        1.0000    0.70320   0.71340   0.82320   Biso      1.000     N          -0.200425           
         N3        1.0000    0.07490   0.31920   0.07600   Biso      1.000     N          -0.165216           
         N4        1.0000    0.09860   0.67410   0.07130   Biso      1.000     N          -0.201453           
         N5        1.0000    0.82700   0.72700   0.16580   Biso      1.000     N          -0.151419           
         N6        1.0000    0.47010   0.68080   0.92400   Biso      1.000     N          -0.165986           
         N7        1.0000    0.15090   0.92400   0.31920   Biso      1.000     N          -0.165926           
         N8        1.0000    0.77270   0.07130   0.32590   Biso      1.000     N          -0.196655           
         N9        1.0000    0.55400   0.16580   0.27300   Biso      1.000     N          -0.150033           
         N10       1.0000    0.41660   0.82320   0.28660   Biso      1.000     N          -0.201008           
         N11       1.0000    0.16990   0.92870   0.67410   Biso      1.000     N          -0.202877           
         N12       1.0000    0.99280   0.83420   0.72700   Biso      1.000     N          -0.149919           
         N13       1.0000    0.71980   0.27300   0.83420   Biso      1.000     N          -0.149184           
         N14       1.0000    0.52640   0.17680   0.71340   Biso      1.000     N          -0.200788           
         N15       1.0000    0.39410   0.07600   0.68080   Biso      1.000     N          -0.164404           
         N16       1.0000    0.84400   0.32590   0.92870   Biso      1.000     N          -0.199415           
         Ni1       1.0000    0.62662   0.22877   0.76867   Biso      1.000     Ni          0.932133  
         Ni2       1.0000    0.85539   0.76867   0.77123   Biso      1.000     Ni          0.932091  
         Ni3       1.0000    0.28676   0.00227   0.66757   Biso      1.000     Ni          0.931648  
         Ni4       1.0000    0.39529   0.23133   0.22877   Biso      1.000     Ni          0.933774  
         Ni5       1.0000    0.95660   0.99773   0.33243   Biso      1.000     Ni          0.920212  
         Ni6       1.0000    0.62406   0.77123   0.23133   Biso      1.000     Ni          0.933175  
         Ni7       1.0000    0.28903   0.66757   0.99773   Biso      1.000     Ni          0.921847  
         Ni8       1.0000    0.95433   0.33243   0.00227   Biso      1.000     Ni          0.930763  
         O1        1.0000    0.25710   0.25440   0.38800   Biso      1.000     O          -0.869228           
         O2        1.0000    0.23390   0.47110   0.81670   Biso      1.000     O          -1.002892           
         O3        1.0000    0.34700   0.55190   0.10030   Biso      1.000     O          -0.841508           
         O4        1.0000    0.62450   0.78520   0.37340   Biso      1.000     O          -0.882421           
         O5        1.0000    0.24530   0.56760   0.32340   Biso      1.000     O          -0.922232           
         O6        1.0000    0.98950   0.10830   0.21150   Biso      1.000     O          -0.522058           
         O7        1.0000    0.88930   0.22710   0.10950   Biso      1.000     O          -0.551104           
         O8        1.0000    0.56920   0.93530   0.21570   Biso      1.000     O          -0.500267           
         O9        1.0000    0.38350   0.08870   0.24230   Biso      1.000     O          -0.548597           
         O10       1.0000    0.70500   0.81670   0.52890   Biso      1.000     O          -1.000593           
         O11       1.0000    0.97580   0.69960   0.39660   Biso      1.000     O          -0.940911           
         O12       1.0000    0.89650   0.90150   0.46130   Biso      1.000     O          -0.826521           
         O13       1.0000    0.89890   0.10030   0.44810   Biso      1.000     O          -0.841695           
         O14       1.0000    0.25930   0.09850   0.53870   Biso      1.000     O          -0.829394           
         O15       1.0000    0.56870   0.67660   0.56760   Biso      1.000     O          -0.921657           
         O16       1.0000    0.99790   0.62660   0.78520   Biso      1.000     O          -0.881887           
         O17       1.0000    0.44730   0.89970   0.55190   Biso      1.000     O          -0.843221           
         O18       1.0000    0.05060   0.18330   0.47110   Biso      1.000     O          -1.001159           
         O19       1.0000    0.07200   0.30040   0.60340   Biso      1.000     O          -0.942992           
         O20       1.0000    0.89950   0.74560   0.61200   Biso      1.000     O          -0.868791           
         O21       1.0000    0.71450   0.91130   0.75770   Biso      1.000     O          -0.547657           
         O22       1.0000    0.72020   0.06470   0.78430   Biso      1.000     O          -0.501733           
         O23       1.0000    0.22590   0.77290   0.89050   Biso      1.000     O          -0.549146           
         O24       1.0000    0.30930   0.89170   0.78850   Biso      1.000     O          -0.521409           
         O25       1.0000    0.81290   0.32340   0.43240   Biso      1.000     O          -0.921858           
         O26       1.0000    0.37240   0.60340   0.69960   Biso      1.000     O          -0.942121           
         O27       1.0000    0.40970   0.37340   0.21480   Biso      1.000     O          -0.884069           
         O28       1.0000    0.64510   0.61200   0.25440   Biso      1.000     O          -0.868539           
         O29       1.0000    0.04960   0.50000   0.50000   Biso      1.000     O          -0.930816           
         O30       1.0000    0.62580   0.75770   0.08870   Biso      1.000     O          -0.549327           
         O31       1.0000    0.54960   0.50000   0.50000   Biso      1.000     O          -0.929891           
         O32       1.0000    0.35780   0.53870   0.90150   Biso      1.000     O          -0.826855           
         O33       1.0000    0.11640   0.10950   0.77290   Biso      1.000     O          -0.549676           
         O34       1.0000    0.50450   0.21570   0.06470   Biso      1.000     O          -0.500093           
         O35       1.0000    0.47220   0.24230   0.91130   Biso      1.000     O          -0.548599           
         O36       1.0000    0.79800   0.46130   0.09850   Biso      1.000     O          -0.827157           
         O37       1.0000    0.51150   0.38800   0.74560   Biso      1.000     O          -0.869392           
         O38       1.0000    0.09780   0.21150   0.89170   Biso      1.000     O          -0.52139  
         O39       1.0000    0.52170   0.52890   0.18330   Biso      1.000     O          -1.00263  
         O40       1.0000    0.99920   0.44810   0.89970   Biso      1.000     O          -0.843334           
         O41       1.0000    0.78310   0.21480   0.62660   Biso      1.000     O          -0.883187           
         O42       1.0000    0.13630   0.43240   0.67660   Biso      1.000     O          -0.920768           
         O43       1.0000    0.20100   0.78850   0.10830   Biso      1.000     O          -0.521311           
         O44       1.0000    0.99880   0.89050   0.22710   Biso      1.000     O          -0.550629           
         O45       1.0000    0.78490   0.78430   0.93530   Biso      1.000     O          -0.502493           
         O46       1.0000    0.67540   0.39660   0.30040   Biso      1.000     O          -0.941224           
         V1        1.0000    0.08728   0.49904   0.79766   Biso      1.000     V          1.955772  
         V2        1.0000    0.65354   0.37736   0.43356   Biso      1.000     V          1.474107  
         V3        1.0000    0.37303   0.49647   0.79309   Biso      1.000     V          1.99627   
         V4        1.0000    0.38398   0.50096   0.20234   Biso      1.000     V          1.952562  
         V5        1.0000    0.46446   0.62264   0.56644   Biso      1.000     V          1.47416   
         V6        1.0000    0.16612   0.20691   0.49647   Biso      1.000     V          1.999707  
         V7        1.0000    0.88494   0.20234   0.49904   Biso      1.000     V          1.953991  
         V8        1.0000    0.08710   0.56644   0.37736   Biso      1.000     V          1.476739  
         V9        1.0000    0.58632   0.79766   0.50096   Biso      1.000     V          1.954213  
         V10       1.0000    0.03090   0.43356   0.62264   Biso      1.000     V          1.474346  
         V11       1.0000    0.86950   0.79309   0.50353   Biso      1.000     V          1.993173  
         V12       1.0000    0.66259   0.50353   0.20691   Biso      1.000     V          1.996324 