
##########################################################################
#               Crystallographic Information Format file
#               Produced by PyCifRW module
#
#  This is a CIF file.  CIF has been adopted by the International
#  Union of Crystallography as the standard for data archiving and
#  transmission.
#
#  For information on this file format, follow the CIF links at
#  http://www.iucr.org
##########################################################################

data_image0

_cell_length_a                          10.814
_cell_length_b                          11.523
_cell_length_c                          12.6159
_cell_angle_alpha                       110.517
_cell_angle_beta                        115.378
_cell_angle_gamma                       90
_symmetry_space_group_name_H-M          'P 1'
_symmetry_int_tables_number             1
loop_
  _symmetry_equiv_pos_as_xyz
         'x, y, z' 
loop_
  _atom_site_label
  _atom_site_occupancy
  _atom_site_fract_x
  _atom_site_fract_y
  _atom_site_fract_z
  _atom_site_thermal_displace_type
  _atom_site_B_iso_or_equiv
  _atom_site_type_symbol
  _atom_site_charge
         C1        1.0000    0.71575   0.25066   0.73642   Biso      1.000     C          0.598485  
         C2        1.0000    0.79556   0.83900   0.25732   Biso      1.000     C          0.095837  
         C3        1.0000    0.87008   0.42835   0.34588   Biso      1.000     C          -0.178871           
         C4        1.0000    0.52696   0.05700   0.04328   Biso      1.000     C          -0.127502           
         C5        1.0000    0.12992   0.57165   0.65412   Biso      1.000     C          -0.178908           
         C6        1.0000    0.94256   0.14869   0.44294   Biso      1.000     C          0.621458  
         C7        1.0000    0.28425   0.74934   0.26358   Biso      1.000     C          0.598441  
         C8        1.0000    0.49962   0.35131   0.55706   Biso      1.000     C          0.620013  
         C9        1.0000    0.09796   0.72859   0.56590   Biso      1.000     C          -0.113057           
         C10       1.0000    0.67898   0.88880   0.91436   Biso      1.000     C          -0.185531           
         C11       1.0000    0.47659   0.74100   0.80652   Biso      1.000     C          -0.198564           
         C12       1.0000    0.90204   0.27141   0.43410   Biso      1.000     C          -0.113043           
         C13       1.0000    0.38906   0.00734   0.57218   Biso      1.000     C          0.094645  
         C14       1.0000    0.54467   0.85840   0.89358   Biso      1.000     C          0.168373  
         C15       1.0000    0.53206   0.77141   0.43410   Biso      1.000     C          -0.110767           
         C16       1.0000    0.46794   0.22859   0.56590   Biso      1.000     C          -0.110775           
         C17       1.0000    0.26538   0.19751   0.15182   Biso      1.000     C          0.094938  
         C18       1.0000    0.32993   0.24100   0.80652   Biso      1.000     C          -0.197549           
         C19       1.0000    0.65109   0.64160   0.10642   Biso      1.000     C          0.168616  
         C20       1.0000    0.15314   0.65779   0.48728   Biso      1.000     C          0.057626  
         C21       1.0000    0.66586   0.84221   0.51272   Biso      1.000     C          0.057008  
         C22       1.0000    0.43343   0.81645   0.35008   Biso      1.000     C          0.021717  
         C23       1.0000    0.91665   0.31645   0.35008   Biso      1.000     C          0.024355  
         C24       1.0000    0.67007   0.75900   0.19348   Biso      1.000     C          -0.197543           
         C25       1.0000    0.61094   0.99266   0.42782   Biso      1.000     C          0.094633  
         C26       1.0000    0.53824   0.66100   0.74268   Biso      1.000     C          0.097714  
         C27       1.0000    0.08335   0.68355   0.64992   Biso      1.000     C          0.024308  
         C28       1.0000    0.88644   0.69751   0.15182   Biso      1.000     C          0.094678  
         C29       1.0000    0.05744   0.85131   0.55706   Biso      1.000     C          0.621466  
         C30       1.0000    0.51632   0.55700   0.04328   Biso      1.000     C          -0.128413           
         C31       1.0000    0.73462   0.80249   0.84818   Biso      1.000     C          0.094948  
         C32       1.0000    0.11356   0.30249   0.84818   Biso      1.000     C          0.094683  
         C33       1.0000    0.45533   0.14160   0.10642   Biso      1.000     C          0.168326  
         C34       1.0000    0.81688   0.49266   0.42782   Biso      1.000     C          0.093228  
         C35       1.0000    0.47580   0.92835   0.34588   Biso      1.000     C          -0.177873           
         C36       1.0000    0.52420   0.07165   0.65412   Biso      1.000     C          -0.177909           
         C37       1.0000    0.20444   0.16100   0.74268   Biso      1.000     C          0.095873  
         C38       1.0000    0.46176   0.33900   0.25732   Biso      1.000     C          0.097681  
         C39       1.0000    0.33414   0.15779   0.48728   Biso      1.000     C          0.057039  
         C40       1.0000    0.76462   0.61120   0.08564   Biso      1.000     C          -0.184856           
         C41       1.0000    0.56657   0.18355   0.64992   Biso      1.000     C          0.02168   
         C42       1.0000    0.48368   0.44300   0.95672   Biso      1.000     C          -0.128426           
         C43       1.0000    0.97933   0.24934   0.26358   Biso      1.000     C          0.594828  
         C44       1.0000    0.52341   0.25900   0.19348   Biso      1.000     C          -0.198572           
         C45       1.0000    0.34891   0.35840   0.89358   Biso      1.000     C          0.168662  
         C46       1.0000    0.84686   0.34221   0.51272   Biso      1.000     C          0.057602  
         C47       1.0000    0.32102   0.11120   0.08564   Biso      1.000     C          -0.185556           
         C48       1.0000    0.02067   0.75066   0.73642   Biso      1.000     C          0.594862  
         C49       1.0000    0.50038   0.64869   0.44294   Biso      1.000     C          0.620009  
         C50       1.0000    0.23538   0.38880   0.91436   Biso      1.000     C          -0.18482  
         C51       1.0000    0.18312   0.50734   0.57218   Biso      1.000     C          0.093222  
         C52       1.0000    0.47304   0.94300   0.95672   Biso      1.000     C          -0.127518           
         H1        1.0000    0.40320   0.21430   0.78980   Biso      1.000     H          0.120056  
         H2        1.0000    0.41400   0.95950   0.28860   Biso      1.000     H          0.134041  
         H3        1.0000    0.16250   0.68830   0.43140   Biso      1.000     H          0.109508  
         H4        1.0000    0.63770   0.06750   0.42440   Biso      1.000     H          0.099267  
         H5        1.0000    0.80440   0.91750   0.31800   Biso      1.000     H          0.087386  
         H6        1.0000    0.83750   0.31170   0.56860   Biso      1.000     H          0.109505  
         H7        1.0000    0.61850   0.08740   0.06700   Biso      1.000     H          0.120705  
         H8        1.0000    0.82550   0.82540   0.86480   Biso      1.000     H          0.101685  
         H9        1.0000    0.38150   0.91260   0.93300   Biso      1.000     H          0.120708  
         H10       1.0000    0.12540   0.54050   0.71140   Biso      1.000     H          0.134816  
         H11       1.0000    0.21330   0.43250   0.57560   Biso      1.000     H          0.099749  
         H12       1.0000    0.26890   0.18830   0.43140   Biso      1.000     H          0.109112  
         H13       1.0000    0.96070   0.67460   0.13520   Biso      1.000     H          0.101897  
         H14       1.0000    0.59680   0.78570   0.21020   Biso      1.000     H          0.120039  
         H15       1.0000    0.73180   0.96760   0.97300   Biso      1.000     H          0.144232  
         H16       1.0000    0.36230   0.93250   0.57560   Biso      1.000     H          0.099261  
         H17       1.0000    0.55150   0.41260   0.93300   Biso      1.000     H          0.120895  
         H18       1.0000    0.78670   0.56750   0.42440   Biso      1.000     H          0.099759  
         H19       1.0000    0.48640   0.58250   0.68200   Biso      1.000     H          0.086531  
         H20       1.0000    0.03930   0.32540   0.86480   Biso      1.000     H          0.101922  
         H21       1.0000    0.19560   0.08250   0.68200   Biso      1.000     H          0.087401  
         H22       1.0000    0.38660   0.71430   0.78980   Biso      1.000     H          0.120219  
         H23       1.0000    0.24120   0.46760   0.97300   Biso      1.000     H          0.143707  
         H24       1.0000    0.73110   0.81170   0.56860   Biso      1.000     H          0.109106  
         H25       1.0000    0.44850   0.58740   0.06700   Biso      1.000     H          0.120893  
         H26       1.0000    0.58600   0.04050   0.71140   Biso      1.000     H          0.134042  
         H27       1.0000    0.75880   0.53240   0.02700   Biso      1.000     H          0.143688  
         H28       1.0000    0.26820   0.03240   0.02700   Biso      1.000     H          0.14421   
         H29       1.0000    0.17450   0.17460   0.13520   Biso      1.000     H          0.101665  
         H30       1.0000    0.87460   0.45950   0.28860   Biso      1.000     H          0.13483   
         H31       1.0000    0.51360   0.41750   0.31800   Biso      1.000     H          0.086517  
         H32       1.0000    0.61340   0.28570   0.21020   Biso      1.000     H          0.120202  
         N1        1.0000    0.70500   0.95185   0.51182   Biso      1.000     N          -0.236959           
         N2        1.0000    0.09571   0.18837   0.76188   Biso      1.000     N          -0.234832           
         N3        1.0000    0.29500   0.04815   0.48818   Biso      1.000     N          -0.236931           
         N4        1.0000    0.19318   0.54815   0.48818   Biso      1.000     N          -0.236935           
         N5        1.0000    0.80682   0.45185   0.51182   Biso      1.000     N          -0.236941           
         N6        1.0000    0.33383   0.31163   0.23812   Biso      1.000     N          -0.235006           
         N7        1.0000    0.66617   0.68837   0.76188   Biso      1.000     N          -0.235022           
         N8        1.0000    0.90429   0.81163   0.23812   Biso      1.000     N          -0.234805           
         Ni1       1.0000    0.90294   0.06273   0.64344   Biso      1.000     Ni          0.860245  
         Ni2       1.0000    0.09706   0.93727   0.35656   Biso      1.000     Ni          0.859875  
         Ni3       1.0000    0.25950   0.43727   0.35656   Biso      1.000     Ni          0.859728  
         Ni4       1.0000    0.74050   0.56273   0.64344   Biso      1.000     Ni          0.86009   
         O1        1.0000    0.10477   0.28709   0.30006   Biso      1.000     O          -0.595142           
         O2        1.0000    0.89528   0.10421   0.49756   Biso      1.000     O          -0.572946           
         O3        1.0000    0.10472   0.89579   0.50244   Biso      1.000     O          -0.572945           
         O4        1.0000    0.25953   0.66317   0.15980   Biso      1.000     O          -0.554874           
         O5        1.0000    0.19529   0.78709   0.30006   Biso      1.000     O          -0.59707  
         O6        1.0000    0.09973   0.83683   0.84020   Biso      1.000     O          -0.553808           
         O7        1.0000    0.62527   0.40072   0.61002   Biso      1.000     O          -0.532137           
         O8        1.0000    0.74047   0.33683   0.84020   Biso      1.000     O          -0.554726           
         O9        1.0000    0.60228   0.60421   0.49756   Biso      1.000     O          -0.572253           
         O10       1.0000    0.01525   0.09928   0.38998   Biso      1.000     O          -0.532289           
         O11       1.0000    0.98475   0.90072   0.61002   Biso      1.000     O          -0.53232  
         O12       1.0000    0.39772   0.39579   0.50244   Biso      1.000     O          -0.572219           
         O13       1.0000    0.89523   0.71291   0.69994   Biso      1.000     O          -0.595157           
         O14       1.0000    0.37473   0.59928   0.38998   Biso      1.000     O          -0.532095           
         O15       1.0000    0.80471   0.21291   0.69994   Biso      1.000     O          -0.597063           
         O16       1.0000    0.90027   0.16317   0.15980   Biso      1.000     O          -0.553914 