
##########################################################################
#               Crystallographic Information Format file
#               Produced by PyCifRW module
#
#  This is a CIF file.  CIF has been adopted by the International
#  Union of Crystallography as the standard for data archiving and
#  transmission.
#
#  For information on this file format, follow the CIF links at
#  http://www.iucr.org
##########################################################################

data_image0

_cell_length_a                          11.046
_cell_length_b                          11.1046
_cell_length_c                          11.1046
_cell_angle_alpha                       106.766
_cell_angle_beta                        117.981
_cell_angle_gamma                       62.0189
_symmetry_space_group_name_H-M          'P 1'
_symmetry_int_tables_number             1
loop_
  _symmetry_equiv_pos_as_xyz
         'x, y, z' 
loop_
  _atom_site_label
  _atom_site_occupancy
  _atom_site_fract_x
  _atom_site_fract_y
  _atom_site_fract_z
  _atom_site_thermal_displace_type
  _atom_site_B_iso_or_equiv
  _atom_site_type_symbol
  _atom_site_charge
         C1        1.0000    0.73291   0.11437   0.59763   Biso      1.000     C          0.123543  
         C2        1.0000    0.73269   0.67631   0.35743   Biso      1.000     C          -0.099413           
         C3        1.0000    0.73350   0.71247   0.49969   Biso      1.000     C          0.613351  
         C4        1.0000    0.26709   0.88563   0.40237   Biso      1.000     C          0.123543  
         C5        1.0000    0.63442   0.76156   0.25134   Biso      1.000     C          0.039938  
         C6        1.0000    0.23350   0.50031   0.28753   Biso      1.000     C          0.613346  
         C7        1.0000    0.26650   0.28753   0.50031   Biso      1.000     C          0.613354  
         C8        1.0000    0.13442   0.74866   0.23844   Biso      1.000     C          0.039929  
         C9        1.0000    0.76650   0.49969   0.71247   Biso      1.000     C          0.613345  
         C10       1.0000    0.76709   0.59763   0.11437   Biso      1.000     C          0.123548  
         C11       1.0000    0.16043   0.44802   0.66818   Biso      1.000     C          0.059857  
         C12       1.0000    0.51581   0.90157   0.26399   Biso      1.000     C          0.601037  
         C13       1.0000    0.26731   0.32369   0.64257   Biso      1.000     C          -0.099416           
         C14       1.0000    0.15249   0.87211   0.28029   Biso      1.000     C          -0.155703           
         C15       1.0000    0.83957   0.55198   0.33182   Biso      1.000     C          0.059855  
         C16       1.0000    0.65249   0.71971   0.12789   Biso      1.000     C          -0.155707           
         C17       1.0000    0.36558   0.23844   0.74866   Biso      1.000     C          0.039939  
         C18       1.0000    0.23291   0.40237   0.88563   Biso      1.000     C          0.123548  
         C19       1.0000    0.48419   0.09843   0.73601   Biso      1.000     C          0.601036  
         C20       1.0000    0.66043   0.33182   0.55198   Biso      1.000     C          0.059831  
         C21       1.0000    0.33957   0.66818   0.44802   Biso      1.000     C          0.059832  
         C22       1.0000    0.86558   0.25134   0.76156   Biso      1.000     C          0.039929  
         C23       1.0000    0.98419   0.26399   0.90157   Biso      1.000     C          0.601038  
         C24       1.0000    0.01581   0.73601   0.09843   Biso      1.000     C          0.601036  
         C25       1.0000    0.84751   0.12789   0.71971   Biso      1.000     C          -0.155703           
         C26       1.0000    0.34751   0.28029   0.87211   Biso      1.000     C          -0.155707           
         C27       1.0000    0.76731   0.35743   0.67631   Biso      1.000     C          -0.099403           
         C28       1.0000    0.23269   0.64257   0.32369   Biso      1.000     C          -0.099404           
         H1        1.0000    0.40120   0.59920   0.50740   Biso      1.000     H          0.101681  
         H2        1.0000    0.59880   0.40080   0.49260   Biso      1.000     H          0.10168   
         H3        1.0000    0.28090   0.96700   0.42640   Biso      1.000     H          0.103076  
         H4        1.0000    0.09880   0.50740   0.59920   Biso      1.000     H          0.101679  
         H5        1.0000    0.08770   0.94530   0.22630   Biso      1.000     H          0.137201  
         H6        1.0000    0.23100   0.19000   0.10460   Biso      1.000     H          0.455377  
         H7        1.0000    0.90120   0.49260   0.40080   Biso      1.000     H          0.101678  
         H8        1.0000    0.26900   0.10460   0.19000   Biso      1.000     H          0.455381  
         H9        1.0000    0.76900   0.81000   0.89540   Biso      1.000     H          0.455376  
         H10       1.0000    0.41230   0.22630   0.94530   Biso      1.000     H          0.137203  
         H11       1.0000    0.71910   0.03300   0.57360   Biso      1.000     H          0.103077  
         H12       1.0000    0.21910   0.42640   0.96700   Biso      1.000     H          0.103076  
         H13       1.0000    0.73100   0.89540   0.81000   Biso      1.000     H          0.455379  
         H14       1.0000    0.91230   0.05470   0.77370   Biso      1.000     H          0.137202  
         H15       1.0000    0.58770   0.77370   0.05470   Biso      1.000     H          0.137204  
         H16       1.0000    0.78090   0.57360   0.03300   Biso      1.000     H          0.103076  
         N1        1.0000    0.64097   0.21417   0.51259   Biso      1.000     N          -0.224418           
         N2        1.0000    0.85903   0.51259   0.21417   Biso      1.000     N          -0.224437           
         N3        1.0000    0.14097   0.48741   0.78583   Biso      1.000     N          -0.224437           
         N4        1.0000    0.35903   0.78583   0.48741   Biso      1.000     N          -0.224419           
         Ni1       1.0000    0.55148   0.79697   0.65551   Biso      1.000     Ni          0.874811  
         Ni2       1.0000    0.44852   0.20303   0.34449   Biso      1.000     Ni          0.87481   
         Ni3       1.0000    0.05148   0.34449   0.20303   Biso      1.000     Ni          0.874825  
         Ni4       1.0000    0.94852   0.65551   0.79697   Biso      1.000     Ni          0.874825  
         O1        1.0000    0.75000   0.81502   0.81502   Biso      1.000     O          -0.861338           
         O2        1.0000    0.88241   0.79582   0.08354   Biso      1.000     O          -0.557427           
         O3        1.0000    0.88260   0.51402   0.80232   Biso      1.000     O          -0.495453           
         O4        1.0000    0.64596   0.59079   0.64691   Biso      1.000     O          -0.570104           
         O5        1.0000    0.85404   0.64691   0.59079   Biso      1.000     O          -0.570118           
         O6        1.0000    0.61740   0.80232   0.51402   Biso      1.000     O          -0.495443           
         O7        1.0000    0.25000   0.18498   0.18498   Biso      1.000     O          -0.861339           
         O8        1.0000    0.38241   0.91646   0.20418   Biso      1.000     O          -0.557422           
         O9        1.0000    0.43630   0.00513   0.67353   Biso      1.000     O          -0.576669           
         O10       1.0000    0.93630   0.32647   0.99487   Biso      1.000     O          -0.576673           
         O11       1.0000    0.14596   0.35309   0.40921   Biso      1.000     O          -0.570117           
         O12       1.0000    0.61759   0.08354   0.79582   Biso      1.000     O          -0.557424           
         O13       1.0000    0.38260   0.19768   0.48598   Biso      1.000     O          -0.495439           
         O14       1.0000    0.35404   0.40921   0.35309   Biso      1.000     O          -0.570102           
         O15       1.0000    0.11759   0.20418   0.91646   Biso      1.000     O          -0.557426           
         O16       1.0000    0.06370   0.67353   0.00513   Biso      1.000     O          -0.576675           
         O17       1.0000    0.11740   0.48598   0.19768   Biso      1.000     O          -0.495451           
         O18       1.0000    0.56370   0.99487   0.32647   Biso      1.000     O          -0.576666 