
##########################################################################
#               Crystallographic Information Format file
#               Produced by PyCifRW module
#
#  This is a CIF file.  CIF has been adopted by the International
#  Union of Crystallography as the standard for data archiving and
#  transmission.
#
#  For information on this file format, follow the CIF links at
#  http://www.iucr.org
##########################################################################

data_image0

_cell_length_a                          7.7565
_cell_length_b                          9.5643
_cell_length_c                          15.1895
_cell_angle_alpha                       96.781
_cell_angle_beta                        94.868
_cell_angle_gamma                       110.509
_symmetry_space_group_name_H-M          'P 1'
_symmetry_int_tables_number             1
loop_
  _symmetry_equiv_pos_as_xyz
         'x, y, z' 
loop_
  _atom_site_label
  _atom_site_occupancy
  _atom_site_fract_x
  _atom_site_fract_y
  _atom_site_fract_z
  _atom_site_thermal_displace_type
  _atom_site_B_iso_or_equiv
  _atom_site_type_symbol
  _atom_site_charge
         C1        1.0000    0.01390   0.58570   0.12090   Biso      1.000     C          -0.11504  
         C2        1.0000    0.11570   0.22200   0.96050   Biso      1.000     C          -0.181818           
         C3        1.0000    0.87630   0.04850   0.15330   Biso      1.000     C          -0.118899           
         C4        1.0000    0.07970   0.20040   0.86850   Biso      1.000     C          0.17803   
         C5        1.0000    0.62810   0.84890   0.83800   Biso      1.000     C          -0.128093           
         C6        1.0000    0.14330   0.06700   0.73030   Biso      1.000     C          0.116426  
         C7        1.0000    0.57910   0.21430   0.02260   Biso      1.000     C          -0.150994           
         C8        1.0000    0.51010   0.93800   0.96860   Biso      1.000     C          0.052766  
         C9        1.0000    0.41740   0.67300   0.33110   Biso      1.000     C          -0.034408           
         C10       1.0000    0.37190   0.15110   0.16200   Biso      1.000     C          -0.128183           
         C11       1.0000    0.43600   0.42350   0.30860   Biso      1.000     C          -0.048008           
         C12       1.0000    0.12370   0.95150   0.84670   Biso      1.000     C          -0.119034           
         C13       1.0000    0.98610   0.41430   0.87910   Biso      1.000     C          -0.115006           
         C14       1.0000    0.85670   0.93300   0.26970   Biso      1.000     C          0.116557  
         C15       1.0000    0.42090   0.78570   0.97740   Biso      1.000     C          -0.151039           
         C16       1.0000    0.92030   0.79960   0.13150   Biso      1.000     C          0.177984  
         C17       1.0000    0.56400   0.57650   0.69140   Biso      1.000     C          -0.047962           
         C18       1.0000    0.54240   0.43680   0.81330   Biso      1.000     C          -0.163917           
         C19       1.0000    0.91720   0.66250   0.98870   Biso      1.000     C          -0.124861           
         C20       1.0000    0.38610   0.03610   0.10220   Biso      1.000     C          -0.151938           
         C21       1.0000    0.43370   0.66950   0.91770   Biso      1.000     C          -0.150152           
         C22       1.0000    0.61390   0.96390   0.89780   Biso      1.000     C          -0.151919           
         C23       1.0000    0.45500   0.43150   0.21830   Biso      1.000     C          0.03854   
         C24       1.0000    0.55740   0.31680   0.75780   Biso      1.000     C          -0.136861           
         C25       1.0000    0.54500   0.56850   0.78170   Biso      1.000     C          0.038547  
         C26       1.0000    0.01420   0.29660   0.82700   Biso      1.000     C          -0.165118           
         C27       1.0000    0.58260   0.32700   0.66890   Biso      1.000     C          -0.034422           
         C28       1.0000    0.53460   0.69660   0.84600   Biso      1.000     C          0.077281  
         C29       1.0000    0.45520   0.29690   0.35630   Biso      1.000     C          0.599014  
         C30       1.0000    0.60560   0.20130   0.60700   Biso      1.000     C          0.609544  
         C31       1.0000    0.44260   0.68320   0.24220   Biso      1.000     C          -0.13689  
         C32       1.0000    0.08280   0.33750   0.01130   Biso      1.000     C          -0.124918           
         C33       1.0000    0.54480   0.70310   0.64370   Biso      1.000     C          0.598953  
         C34       1.0000    0.56630   0.33050   0.08230   Biso      1.000     C          -0.150138           
         C35       1.0000    0.16410   0.87060   0.77740   Biso      1.000     C          -0.008781           
         C36       1.0000    0.98580   0.70340   0.17300   Biso      1.000     C          -0.165162           
         C37       1.0000    0.58690   0.45930   0.63730   Biso      1.000     C          -0.118952           
         C38       1.0000    0.01650   0.43750   0.97210   Biso      1.000     C          0.058557  
         C39       1.0000    0.45760   0.56320   0.18670   Biso      1.000     C          -0.163874           
         C40       1.0000    0.46540   0.30340   0.15400   Biso      1.000     C          0.077227  
         C41       1.0000    0.48990   0.06200   0.03140   Biso      1.000     C          0.052818  
         C42       1.0000    0.83590   0.12940   0.22260   Biso      1.000     C          -0.008789           
         C43       1.0000    0.41310   0.54070   0.36270   Biso      1.000     C          -0.118898           
         C44       1.0000    0.39440   0.79870   0.39300   Biso      1.000     C          0.609474  
         C45       1.0000    0.88430   0.77800   0.03950   Biso      1.000     C          -0.181785           
         C46       1.0000    0.98350   0.56250   0.02790   Biso      1.000     C          0.058595  
         H1        1.0000    0.89460   0.65090   0.92670   Biso      1.000     H          0.112462  
         H2        1.0000    0.70020   0.87250   0.79210   Biso      1.000     H          0.120056  
         H3        1.0000    0.60570   0.46890   0.57830   Biso      1.000     H          0.134106  
         H4        1.0000    0.64840   0.23770   0.97570   Biso      1.000     H          0.106217  
         H5        1.0000    0.32330   0.93670   0.10970   Biso      1.000     H          0.104844  
         H6        1.0000    0.67670   0.06330   0.89030   Biso      1.000     H          0.104845  
         H7        1.0000    0.62710   0.42980   0.07420   Biso      1.000     H          0.104607  
         H8        1.0000    0.81980   0.22100   0.22090   Biso      1.000     H          0.124713  
         H9        1.0000    0.83770   0.84130   0.01150   Biso      1.000     H          0.120637  
         H10       1.0000    0.98930   0.28280   0.76490   Biso      1.000     H          0.138623  
         H11       1.0000    0.44950   0.77110   0.21980   Biso      1.000     H          0.111285  
         H12       1.0000    0.55050   0.22890   0.78020   Biso      1.000     H          0.111287  
         H13       1.0000    0.10540   0.34910   0.07330   Biso      1.000     H          0.112438  
         H14       1.0000    0.39430   0.53110   0.42170   Biso      1.000     H          0.134138  
         H15       1.0000    0.85830   0.86210   0.30640   Biso      1.000     H          0.107693  
         H16       1.0000    0.46980   0.57080   0.12690   Biso      1.000     H          0.109645  
         H17       1.0000    0.10790   0.92630   0.90350   Biso      1.000     H          0.127138  
         H18       1.0000    0.35160   0.76230   0.02430   Biso      1.000     H          0.1062    
         H19       1.0000    0.14170   0.13790   0.69360   Biso      1.000     H          0.107678  
         H20       1.0000    0.16230   0.15870   0.98850   Biso      1.000     H          0.120634  
         H21       1.0000    0.37290   0.57020   0.92580   Biso      1.000     H          0.104603  
         H22       1.0000    0.29980   0.12750   0.20790   Biso      1.000     H          0.120035  
         H23       1.0000    0.53020   0.42920   0.87310   Biso      1.000     H          0.109632  
         H24       1.0000    0.01070   0.71720   0.23510   Biso      1.000     H          0.138624  
         H25       1.0000    0.94540   0.48030   0.85060   Biso      1.000     H          0.116172  
         H26       1.0000    0.18020   0.77900   0.77910   Biso      1.000     H          0.124706  
         H27       1.0000    0.89210   0.07370   0.09650   Biso      1.000     H          0.127173  
         H28       1.0000    0.05460   0.51970   0.14940   Biso      1.000     H          0.11617   
         Mn1       1.0000    0.29379   0.87735   0.58373   Biso      1.000     Mn          1.010483  
         Mn2       1.0000    0.70621   0.12265   0.41627   Biso      1.000     Mn          1.012164  
         N1        1.0000    0.11070   0.07890   0.81630   Biso      1.000     N          0.021739  
         N2        1.0000    0.82230   0.05620   0.29610   Biso      1.000     N          -0.29808  
         N3        1.0000    0.17770   0.94380   0.70390   Biso      1.000     N          -0.2978   
         N4        1.0000    0.88930   0.92110   0.18370   Biso      1.000     N          0.02177   
         O1        1.0000    0.39440   0.72750   0.64896   Biso      1.000     O          -0.591693           
         O2        1.0000    0.67250   0.76750   0.60200   Biso      1.000     O          -0.579745           
         O3        1.0000    0.32750   0.23250   0.39800   Biso      1.000     O          -0.579542           
         O4        1.0000    0.31900   0.76070   0.46082   Biso      1.000     O          -0.550961           
         O5        1.0000    0.68100   0.23930   0.53918   Biso      1.000     O          -0.551152           
         O6        1.0000    0.45140   0.93020   0.37469   Biso      1.000     O          -0.583344           
         O7        1.0000    0.54860   0.06980   0.62531   Biso      1.000     O          -0.583145           
         O8        1.0000    0.60560   0.27250   0.35104   Biso      1.000     O          -0.591511 