
##########################################################################
#               Crystallographic Information Format file
#               Produced by PyCifRW module
#
#  This is a CIF file.  CIF has been adopted by the International
#  Union of Crystallography as the standard for data archiving and
#  transmission.
#
#  For information on this file format, follow the CIF links at
#  http://www.iucr.org
##########################################################################

data_image0

_cell_length_a                          6.8953
_cell_length_b                          10.1226
_cell_length_c                          20.2406
_cell_angle_alpha                       92.703
_cell_angle_beta                        90
_cell_angle_gamma                       109.913
_symmetry_space_group_name_H-M          'P 1'
_symmetry_int_tables_number             1
loop_
  _symmetry_equiv_pos_as_xyz
         'x, y, z' 
loop_
  _atom_site_label
  _atom_site_occupancy
  _atom_site_fract_x
  _atom_site_fract_y
  _atom_site_fract_z
  _atom_site_thermal_displace_type
  _atom_site_B_iso_or_equiv
  _atom_site_type_symbol
  _atom_site_charge
         C1        1.0000    0.53865   0.49770   0.77804   Biso      1.000     C          0.146232  
         C2        1.0000    0.04095   0.50230   0.72196   Biso      1.000     C          0.146977  
         C3        1.0000    0.53243   0.50266   0.85232   Biso      1.000     C          0.594991  
         C4        1.0000    0.46480   0.35860   0.68236   Biso      1.000     C          0.148866  
         C5        1.0000    0.46757   0.49734   0.14768   Biso      1.000     C          0.594991  
         C6        1.0000    0.93269   0.47318   0.14369   Biso      1.000     C          -0.301734           
         C7        1.0000    0.99905   0.38230   0.75685   Biso      1.000     C          -0.297427           
         C8        1.0000    0.53520   0.64140   0.31764   Biso      1.000     C          0.148866  
         C9        1.0000    0.54049   0.47318   0.64369   Biso      1.000     C          -0.302439           
         C10       1.0000    0.62359   0.60958   0.67405   Biso      1.000     C          0.401443  
         C11       1.0000    0.95905   0.49770   0.27804   Biso      1.000     C          0.146985  
         C12       1.0000    0.62713   0.79006   0.34788   Biso      1.000     C          0.580859  
         C13       1.0000    0.38325   0.38230   0.25685   Biso      1.000     C          -0.298197           
         C14       1.0000    0.37641   0.39042   0.32595   Biso      1.000     C          0.40144   
         C15       1.0000    0.61675   0.61770   0.74315   Biso      1.000     C          -0.298181           
         C16       1.0000    0.89380   0.35860   0.18236   Biso      1.000     C          0.147581  
         C17       1.0000    0.00095   0.61770   0.24315   Biso      1.000     C          -0.297421           
         C18       1.0000    0.10620   0.64140   0.81764   Biso      1.000     C          0.147584  
         C19       1.0000    0.37287   0.20994   0.65212   Biso      1.000     C          0.580851  
         C20       1.0000    0.02977   0.49734   0.64768   Biso      1.000     C          0.594708  
         C21       1.0000    0.97023   0.50266   0.35232   Biso      1.000     C          0.594702  
         C22       1.0000    0.98599   0.60958   0.17405   Biso      1.000     C          0.401442  
         C23       1.0000    0.83707   0.20994   0.15212   Biso      1.000     C          0.582294  
         C24       1.0000    0.45951   0.52682   0.35631   Biso      1.000     C          -0.302437           
         C25       1.0000    0.46135   0.50230   0.22196   Biso      1.000     C          0.146227  
         C26       1.0000    0.16293   0.79006   0.84788   Biso      1.000     C          0.582301  
         C27       1.0000    0.01401   0.39042   0.82595   Biso      1.000     C          0.401436  
         C28       1.0000    0.06731   0.52682   0.85631   Biso      1.000     C          -0.30173  
         H1        1.0000    0.92340   0.45880   0.09860   Biso      1.000     H          0.129804  
         H2        1.0000    0.85840   0.03880   0.71850   Biso      1.000     H          0.486201  
         H3        1.0000    0.03940   0.70480   0.26540   Biso      1.000     H          0.131062  
         H4        1.0000    0.66540   0.70480   0.76540   Biso      1.000     H          0.131487  
         H5        1.0000    0.53540   0.45880   0.59860   Biso      1.000     H          0.12971   
         H6        1.0000    0.96060   0.29520   0.73460   Biso      1.000     H          0.131057  
         H7        1.0000    0.18040   0.03880   0.21850   Biso      1.000     H          0.485924  
         H8        1.0000    0.81960   0.96120   0.78150   Biso      1.000     H          0.48593   
         H9        1.0000    0.46460   0.54120   0.40140   Biso      1.000     H          0.129708  
         H10       1.0000    0.33460   0.29520   0.23460   Biso      1.000     H          0.131482  
         H11       1.0000    0.07660   0.54120   0.90140   Biso      1.000     H          0.129803  
         H12       1.0000    0.14160   0.96120   0.28150   Biso      1.000     H          0.486205  
         N1        1.0000    0.46261   0.36802   0.74865   Biso      1.000     N          -0.437223           
         N2        1.0000    0.90541   0.36802   0.24865   Biso      1.000     N          -0.436878           
         N3        1.0000    0.09459   0.63198   0.75135   Biso      1.000     N          -0.436883           
         N4        1.0000    0.53739   0.63198   0.25135   Biso      1.000     N          -0.437214           
         O1        1.0000    0.01700   0.61780   0.38430   Biso      1.000     O          -0.633694           
         O2        1.0000    0.45584   0.38768   0.87992   Biso      1.000     O          -0.741582           
         O3        1.0000    0.90230   0.00000   0.75000   Biso      1.000     O          -0.910794           
         O4        1.0000    0.29249   0.27778   0.35977   Biso      1.000     O          -0.690412           
         O5        1.0000    0.60080   0.61780   0.88430   Biso      1.000     O          -0.633682           
         O6        1.0000    0.70751   0.72222   0.64023   Biso      1.000     O          -0.690419           
         O7        1.0000    0.98300   0.38220   0.61570   Biso      1.000     O          -0.633692           
         O8        1.0000    0.06816   0.61232   0.62008   Biso      1.000     O          -0.74185  
         O9        1.0000    0.18822   0.88704   0.80878   Biso      1.000     O          -0.73469  
         O10       1.0000    0.93184   0.38768   0.37992   Biso      1.000     O          -0.741833           
         O11       1.0000    0.30118   0.11296   0.69122   Biso      1.000     O          -0.733752           
         O12       1.0000    0.98529   0.27778   0.85977   Biso      1.000     O          -0.69089  
         O13       1.0000    0.17856   0.80752   0.90979   Biso      1.000     O          -0.603412           
         O14       1.0000    0.01471   0.72222   0.14023   Biso      1.000     O          -0.690904           
         O15       1.0000    0.81178   0.11296   0.19122   Biso      1.000     O          -0.734681           
         O16       1.0000    0.54416   0.61232   0.12008   Biso      1.000     O          -0.741577           
         O17       1.0000    0.62896   0.80752   0.40979   Biso      1.000     O          -0.60311  
         O18       1.0000    0.09770   0.00000   0.25000   Biso      1.000     O          -0.910785           
         O19       1.0000    0.69882   0.88704   0.30878   Biso      1.000     O          -0.733766           
         O20       1.0000    0.37104   0.19248   0.59021   Biso      1.000     O          -0.603102           
         O21       1.0000    0.39920   0.38220   0.11570   Biso      1.000     O          -0.633681           
         O22       1.0000    0.82144   0.19248   0.09021   Biso      1.000     O          -0.603406           
         Sr1       1.0000    0.25152   0.15664   0.81859   Biso      1.000     Sr          1.463578  
         Sr2       1.0000    0.00000   0.50000   0.50000   Biso      1.000     Sr          1.625035  
         Sr3       1.0000    0.50000   0.50000   0.00000   Biso      1.000     Sr          1.625106  
         Sr4       1.0000    0.09488   0.84336   0.68140   Biso      1.000     Sr          1.46352   
         Sr5       1.0000    0.74848   0.84336   0.18140   Biso      1.000     Sr          1.46359   
         Sr6       1.0000    0.90512   0.15664   0.31859   Biso      1.000     Sr          1.463497 