
##########################################################################
#               Crystallographic Information Format file
#               Produced by PyCifRW module
#
#  This is a CIF file.  CIF has been adopted by the International
#  Union of Crystallography as the standard for data archiving and
#  transmission.
#
#  For information on this file format, follow the CIF links at
#  http://www.iucr.org
##########################################################################

data_image0

_cell_length_a                          9.8432
_cell_length_b                          10.0408
_cell_length_c                          18.0453
_cell_angle_alpha                       90.135
_cell_angle_beta                        93.963
_cell_angle_gamma                       113.872
_symmetry_space_group_name_H-M          'P 1'
_symmetry_int_tables_number             1
loop_
  _symmetry_equiv_pos_as_xyz
         'x, y, z' 
loop_
  _atom_site_label
  _atom_site_occupancy
  _atom_site_fract_x
  _atom_site_fract_y
  _atom_site_fract_z
  _atom_site_thermal_displace_type
  _atom_site_B_iso_or_equiv
  _atom_site_type_symbol
  _atom_site_charge
         C1        1.0000    0.24700   0.19500   0.56300   Biso      1.000     C          -0.511843           
         C2        1.0000    0.76500   0.00000   0.56390   Biso      1.000     C          -0.303498           
         C3        1.0000    0.55000   0.49500   0.74450   Biso      1.000     C          -0.166944           
         C4        1.0000    0.79100   0.26100   0.42940   Biso      1.000     C          -0.294092           
         C5        1.0000    0.75900   0.40930   0.90820   Biso      1.000     C          0.65815   
         C6        1.0000    0.47800   0.55800   0.39410   Biso      1.000     C          -0.30792  
         C7        1.0000    0.17500   0.15390   0.24920   Biso      1.000     C          -0.08869  
         C8        1.0000    0.10600   0.88800   0.31090   Biso      1.000     C          -0.174984           
         C9        1.0000    0.42300   0.57800   0.31440   Biso      1.000     C          0.146103  
         C10       1.0000    0.47800   0.66400   0.45370   Biso      1.000     C          0.001174  
         C11       1.0000    0.50900   0.03400   0.37430   Biso      1.000     C          -0.514157           
         C12       1.0000    0.51200   0.14070   0.43440   Biso      1.000     C          0.078867  
         C13       1.0000    0.75300   0.80500   0.43700   Biso      1.000     C          -0.511843           
         C14       1.0000    0.93060   0.10540   0.76370   Biso      1.000     C          -0.093147           
         C15       1.0000    0.52200   0.33600   0.54630   Biso      1.000     C          0.001174  
         C16       1.0000    0.57700   0.42200   0.68560   Biso      1.000     C          0.146103  
         C17       1.0000    0.38400   0.21800   0.52360   Biso      1.000     C          0.063461  
         C18       1.0000    0.48800   0.85930   0.56560   Biso      1.000     C          0.078867  
         C19       1.0000    0.79900   0.47700   0.53880   Biso      1.000     C          -0.516121           
         C20       1.0000    0.35100   0.64810   0.48430   Biso      1.000     C          0.055293  
         C21       1.0000    0.28500   0.66780   0.22650   Biso      1.000     C          -0.0945   
         C22       1.0000    0.11900   0.74000   0.69880   Biso      1.000     C          -0.166346           
         C23       1.0000    0.39200   0.50700   0.18370   Biso      1.000     C          -0.093138           
         C24       1.0000    0.09930   0.51740   0.86760   Biso      1.000     C          0.660596  
         C25       1.0000    0.61800   0.87300   0.53490   Biso      1.000     C          -0.009686           
         C26       1.0000    0.89610   0.96960   0.79500   Biso      1.000     C          -0.045507           
         C27       1.0000    0.30990   0.59210   0.16900   Biso      1.000     C          -0.036416           
         C28       1.0000    0.34200   0.65970   0.29890   Biso      1.000     C          -0.168887           
         C29       1.0000    0.81700   0.98790   0.64350   Biso      1.000     C          0.154848  
         C30       1.0000    0.92280   0.95760   0.87700   Biso      1.000     C          0.694431  
         C31       1.0000    0.12570   0.57100   0.79130   Biso      1.000     C          -0.042349           
         C32       1.0000    0.35300   0.74800   0.54110   Biso      1.000     C          -0.012716           
         C33       1.0000    0.09300   0.68900   0.76830   Biso      1.000     C          -0.089908           
         C34       1.0000    0.78600   0.85300   0.67580   Biso      1.000     C          -0.173163           
         C35       1.0000    0.18100   0.68000   0.64760   Biso      1.000     C          0.162849  
         C36       1.0000    0.18100   0.50700   0.73930   Biso      1.000     C          -0.092789           
         C37       1.0000    0.52200   0.44200   0.60590   Biso      1.000     C          -0.30792  
         C38       1.0000    0.20900   0.56200   0.67070   Biso      1.000     C          -0.181126           
         C39       1.0000    0.06940   0.89460   0.23630   Biso      1.000     C          -0.093147           
         C40       1.0000    0.90070   0.48260   0.13240   Biso      1.000     C          0.660596  
         C41       1.0000    0.69010   0.40790   0.83100   Biso      1.000     C          -0.036419           
         C42       1.0000    0.60800   0.49300   0.81630   Biso      1.000     C          -0.093136           
         C43       1.0000    0.20900   0.73900   0.57060   Biso      1.000     C          -0.294092           
         C44       1.0000    0.71500   0.33220   0.77350   Biso      1.000     C          -0.094496           
         C45       1.0000    0.24100   0.59070   0.09180   Biso      1.000     C          0.65815   
         C46       1.0000    0.49100   0.96600   0.62570   Biso      1.000     C          -0.514157           
         C47       1.0000    0.65800   0.34030   0.70110   Biso      1.000     C          -0.168887           
         C48       1.0000    0.79100   0.43800   0.32930   Biso      1.000     C          -0.181142           
         C49       1.0000    0.18300   0.01210   0.35650   Biso      1.000     C          0.154848  
         C50       1.0000    0.82500   0.84610   0.75080   Biso      1.000     C          -0.088686           
         C51       1.0000    0.88100   0.26000   0.30120   Biso      1.000     C          -0.166346           
         C52       1.0000    0.07720   0.04240   0.12300   Biso      1.000     C          0.694431  
         C53       1.0000    0.10390   0.03040   0.20500   Biso      1.000     C          -0.045503           
         C54       1.0000    0.87430   0.42900   0.20870   Biso      1.000     C          -0.04235  
         C55       1.0000    0.64700   0.25200   0.45890   Biso      1.000     C          -0.012716           
         C56       1.0000    0.23500   0.00000   0.43610   Biso      1.000     C          -0.303498           
         C57       1.0000    0.81900   0.49300   0.26070   Biso      1.000     C          -0.092775           
         C58       1.0000    0.64900   0.35190   0.51570   Biso      1.000     C          0.055293  
         C59       1.0000    0.20100   0.52300   0.46120   Biso      1.000     C          -0.516121           
         C60       1.0000    0.81900   0.32000   0.35240   Biso      1.000     C          0.162853  
         C61       1.0000    0.61600   0.78200   0.47640   Biso      1.000     C          0.063463  
         C62       1.0000    0.21400   0.14700   0.32420   Biso      1.000     C          -0.173162           
         C63       1.0000    0.89400   0.11200   0.68910   Biso      1.000     C          -0.174984           
         C64       1.0000    0.90700   0.31100   0.23170   Biso      1.000     C          -0.089908           
         C65       1.0000    0.45000   0.50500   0.25550   Biso      1.000     C          -0.166943           
         C66       1.0000    0.38200   0.12700   0.46510   Biso      1.000     C          -0.009685           
         H1        1.0000    0.20900   0.83560   0.57070   Biso      1.000     H          0.122825  
         H2        1.0000    0.09510   0.81770   0.68480   Biso      1.000     H          0.112303  
         H3        1.0000    0.12610   0.67740   0.53650   Biso      1.000     H          0.124081  
         H4        1.0000    0.21320   0.46400   0.42270   Biso      1.000     H          0.163697  
         H5        1.0000    0.24900   0.51830   0.63790   Biso      1.000     H          0.103765  
         H6        1.0000    0.50910   0.45320   0.26460   Biso      1.000     H          0.112389  
         H7        1.0000    0.58900   0.04330   0.63210   Biso      1.000     H          0.154414  
         H8        1.0000    0.73930   0.76740   0.64690   Biso      1.000     H          0.110027  
         H9        1.0000    0.19820   0.42470   0.75170   Biso      1.000     H          0.114559  
         H10       1.0000    0.80140   0.75550   0.77160   Biso      1.000     H          0.110706  
         H11       1.0000    0.75200   0.09050   0.55960   Biso      1.000     H          0.123984  
         H12       1.0000    0.84290   0.00550   0.53230   Biso      1.000     H          0.123084  
         H13       1.0000    0.92140   0.20250   0.66820   Biso      1.000     H          0.111522  
         H14       1.0000    0.57820   0.56380   0.39290   Biso      1.000     H          0.122505  
         H15       1.0000    0.41560   0.46040   0.40860   Biso      1.000     H          0.12331   
         H16       1.0000    0.46650   0.91680   0.67160   Biso      1.000     H          0.17065   
         H17       1.0000    0.81510   0.90720   0.43680   Biso      1.000     H          0.158176  
         H18       1.0000    0.80670   0.75510   0.46230   Biso      1.000     H          0.162066  
         H19       1.0000    0.42000   0.00620   0.61160   Biso      1.000     H          0.160207  
         H20       1.0000    0.72430   0.76710   0.38680   Biso      1.000     H          0.169111  
         H21       1.0000    0.05260   0.73270   0.80100   Biso      1.000     H          0.110753  
         H22       1.0000    0.86900   0.43740   0.55690   Biso      1.000     H          0.15934   
         H23       1.0000    0.13100   0.56260   0.44310   Biso      1.000     H          0.15934   
         H24       1.0000    0.23030   0.72380   0.21730   Biso      1.000     H          0.114138  
         H25       1.0000    0.27570   0.23290   0.61320   Biso      1.000     H          0.169111  
         H26       1.0000    0.97770   0.19050   0.79280   Biso      1.000     H          0.114732  
         H27       1.0000    0.18490   0.09280   0.56320   Biso      1.000     H          0.158176  
         H28       1.0000    0.58440   0.53960   0.59140   Biso      1.000     H          0.12331   
         H29       1.0000    0.42180   0.43620   0.60710   Biso      1.000     H          0.122505  
         H30       1.0000    0.15710   0.99450   0.46770   Biso      1.000     H          0.123084  
         H31       1.0000    0.24800   0.90950   0.44040   Biso      1.000     H          0.123984  
         H32       1.0000    0.41100   0.95670   0.36790   Biso      1.000     H          0.154414  
         H33       1.0000    0.80180   0.57530   0.24830   Biso      1.000     H          0.114558  
         H34       1.0000    0.94740   0.26730   0.19900   Biso      1.000     H          0.110753  
         H35       1.0000    0.90490   0.18230   0.31520   Biso      1.000     H          0.112303  
         H36       1.0000    0.75100   0.48170   0.36210   Biso      1.000     H          0.103766  
         H37       1.0000    0.02230   0.80950   0.20720   Biso      1.000     H          0.114732  
         H38       1.0000    0.76970   0.27620   0.78270   Biso      1.000     H          0.114138  
         H39       1.0000    0.59290   0.54670   0.85440   Biso      1.000     H          0.125247  
         H40       1.0000    0.67500   0.28870   0.66260   Biso      1.000     H          0.106082  
         H41       1.0000    0.26070   0.23260   0.35310   Biso      1.000     H          0.110027  
         H42       1.0000    0.58000   0.99380   0.38840   Biso      1.000     H          0.160207  
         H43       1.0000    0.19330   0.24490   0.53770   Biso      1.000     H          0.162066  
         H44       1.0000    0.07860   0.79750   0.33180   Biso      1.000     H          0.111522  
         H45       1.0000    0.53350   0.08320   0.32840   Biso      1.000     H          0.17065   
         H46       1.0000    0.32500   0.71130   0.33740   Biso      1.000     H          0.106082  
         H47       1.0000    0.16360   0.46510   0.50340   Biso      1.000     H          0.154523  
         H48       1.0000    0.83640   0.53490   0.49660   Biso      1.000     H          0.154523  
         H49       1.0000    0.40710   0.45330   0.14560   Biso      1.000     H          0.125247  
         H50       1.0000    0.49090   0.54680   0.73540   Biso      1.000     H          0.11239   
         H51       1.0000    0.79100   0.16440   0.42930   Biso      1.000     H          0.122825  
         H52       1.0000    0.87390   0.32260   0.46350   Biso      1.000     H          0.124081  
         H53       1.0000    0.19860   0.24450   0.22840   Biso      1.000     H          0.110706  
         H54       1.0000    0.78680   0.53600   0.57730   Biso      1.000     H          0.163697  
         O1        1.0000    0.05960   0.93840   0.08190   Biso      1.000     O          -0.724491           
         O2        1.0000    0.07290   0.16080   0.10230   Biso      1.000     O          -0.725636           
         O3        1.0000    0.80400   0.30920   0.92240   Biso      1.000     O          -0.695462           
         O4        1.0000    0.88760   0.59920   0.11630   Biso      1.000     O          -0.658005           
         O5        1.0000    0.77040   0.51080   0.95410   Biso      1.000     O          -0.692975           
         O6        1.0000    0.93930   0.41200   0.08590   Biso      1.000     O          -0.748981           
         O7        1.0000    0.19600   0.69080   0.07760   Biso      1.000     O          -0.695462           
         O8        1.0000    0.11240   0.40080   0.88370   Biso      1.000     O          -0.658005           
         O9        1.0000    0.92710   0.83920   0.89770   Biso      1.000     O          -0.725636           
         O10       1.0000    0.94040   0.06160   0.91810   Biso      1.000     O          -0.724491           
         O11       1.0000    0.06070   0.58800   0.91410   Biso      1.000     O          -0.748981           
         O12       1.0000    0.22960   0.48920   0.04590   Biso      1.000     O          -0.692975           
         Pr1       1.0000    0.99285   0.72334   0.00319   Biso      1.000     Pr          2.209499  
         Pr2       1.0000    0.00715   0.27666   0.99681   Biso      1.000     Pr          2.209498 