
##########################################################################
#               Crystallographic Information Format file
#               Produced by PyCifRW module
#
#  This is a CIF file.  CIF has been adopted by the International
#  Union of Crystallography as the standard for data archiving and
#  transmission.
#
#  For information on this file format, follow the CIF links at
#  http://www.iucr.org
##########################################################################

data_image0

_cell_length_a                          12.79
_cell_length_b                          12.79
_cell_length_c                          11.191
_cell_angle_alpha                       90
_cell_angle_beta                        90
_cell_angle_gamma                       90
_symmetry_space_group_name_H-M          'P 1'
_symmetry_int_tables_number             1
loop_
  _symmetry_equiv_pos_as_xyz
         'x, y, z' 
loop_
  _atom_site_label
  _atom_site_occupancy
  _atom_site_fract_x
  _atom_site_fract_y
  _atom_site_fract_z
  _atom_site_thermal_displace_type
  _atom_site_B_iso_or_equiv
  _atom_site_type_symbol
  _atom_site_charge
         C1        1.0000    0.87960   0.91130   0.77390   Biso      1.000     C          0.350873  
         C2        1.0000    0.29300   0.99000   0.27670   Biso      1.000     C          0.116419  
         C3        1.0000    0.37960   0.58870   0.47610   Biso      1.000     C          0.350873  
         C4        1.0000    0.28260   0.97820   0.14260   Biso      1.000     C          0.145224  
         C5        1.0000    0.71500   0.43650   0.15670   Biso      1.000     C          -0.076862           
         C6        1.0000    0.21500   0.06350   0.09330   Biso      1.000     C          -0.076861           
         C7        1.0000    0.78260   0.52180   0.10740   Biso      1.000     C          0.145225  
         C8        1.0000    0.79300   0.51000   0.97330   Biso      1.000     C          0.116419  
         C9        1.0000    0.68950   0.49150   0.91320   Biso      1.000     C          0.053555  
         C10       1.0000    0.62040   0.41130   0.97610   Biso      1.000     C          0.350873  
         C11       1.0000    0.43650   0.71500   0.84330   Biso      1.000     C          -0.076862           
         C12       1.0000    0.52180   0.78260   0.89260   Biso      1.000     C          0.145225  
         C13       1.0000    0.51000   0.79300   0.02670   Biso      1.000     C          0.116419  
         C14       1.0000    0.49150   0.68950   0.08680   Biso      1.000     C          0.053554  
         C15       1.0000    0.41130   0.62040   0.02390   Biso      1.000     C          0.350873  
         C16       1.0000    0.58870   0.37960   0.52390   Biso      1.000     C          0.350873  
         C17       1.0000    0.56350   0.28500   0.34330   Biso      1.000     C          -0.076861           
         C18       1.0000    0.50850   0.31050   0.58680   Biso      1.000     C          0.053555  
         C19       1.0000    0.31050   0.50850   0.41320   Biso      1.000     C          0.053555  
         C20       1.0000    0.47820   0.21740   0.39260   Biso      1.000     C          0.145225  
         C21       1.0000    0.18950   0.00850   0.33680   Biso      1.000     C          0.053554  
         C22       1.0000    0.12040   0.08870   0.27390   Biso      1.000     C          0.350873  
         C23       1.0000    0.81050   0.99150   0.83680   Biso      1.000     C          0.053555  
         C24       1.0000    0.70700   0.01000   0.77670   Biso      1.000     C          0.116419  
         C25       1.0000    0.06350   0.21500   0.90670   Biso      1.000     C          -0.076861           
         C26       1.0000    0.71740   0.02180   0.64260   Biso      1.000     C          0.145224  
         C27       1.0000    0.97820   0.28260   0.85740   Biso      1.000     C          0.145225  
         C28       1.0000    0.78500   0.93650   0.59330   Biso      1.000     C          -0.076861           
         C29       1.0000    0.99000   0.29300   0.72330   Biso      1.000     C          0.116419  
         C30       1.0000    0.20700   0.49000   0.47330   Biso      1.000     C          0.116419  
         C31       1.0000    0.49000   0.20700   0.52670   Biso      1.000     C          0.116419  
         C32       1.0000    0.08870   0.12040   0.72610   Biso      1.000     C          0.350873  
         C33       1.0000    0.93650   0.78500   0.40670   Biso      1.000     C          -0.076861           
         C34       1.0000    0.02180   0.71740   0.35740   Biso      1.000     C          0.145225  
         C35       1.0000    0.01000   0.70700   0.22330   Biso      1.000     C          0.116419  
         C36       1.0000    0.99150   0.81050   0.16320   Biso      1.000     C          0.053555  
         C37       1.0000    0.91130   0.87960   0.22610   Biso      1.000     C          0.350873  
         C38       1.0000    0.28500   0.56350   0.65670   Biso      1.000     C          -0.076861           
         C39       1.0000    0.21740   0.47820   0.60740   Biso      1.000     C          0.145225  
         C40       1.0000    0.00850   0.18950   0.66320   Biso      1.000     C          0.053555  
         Ca1       1.0000    0.77380   0.77380   0.00000   Biso      1.000     Ca          1.300641  
         Ca2       1.0000    0.22620   0.22620   0.50000   Biso      1.000     Ca          1.300641  
         Ca3       1.0000    0.72620   0.27380   0.75000   Biso      1.000     Ca          1.30064   
         Ca4       1.0000    0.27380   0.72620   0.25000   Biso      1.000     Ca          1.30064   
         H1        1.0000    0.43370   0.31720   0.58550   Biso      1.000     H          0.097755  
         H2        1.0000    0.95080   0.66360   0.20520   Biso      1.000     H          0.046347  
         H3        1.0000    0.79140   0.00450   0.01670   Biso      1.000     H          0.385802  
         H4        1.0000    0.06630   0.81720   0.16450   Biso      1.000     H          0.097755  
         H5        1.0000    0.91550   0.95010   0.19230   Biso      1.000     H          0.037098  
         H6        1.0000    0.60790   0.09870   0.88050   Biso      1.000     H          0.354116  
         H7        1.0000    0.10790   0.40130   0.36950   Biso      1.000     H          0.354116  
         H8        1.0000    0.29140   0.49550   0.23330   Biso      1.000     H          0.385801  
         H9        1.0000    0.33600   0.74000   0.51100   Biso      1.000     H          0.389795  
         H10       1.0000    0.01440   0.65050   0.39550   Biso      1.000     H          0.027807  
         H11       1.0000    0.29490   0.55230   0.74170   Biso      1.000     H          0.101506  
         H12       1.0000    0.15050   0.48560   0.64550   Biso      1.000     H          0.027807  
         H13       1.0000    0.16360   0.54920   0.45520   Biso      1.000     H          0.046348  
         H14       1.0000    0.54920   0.16360   0.54480   Biso      1.000     H          0.046347  
         H15       1.0000    0.31720   0.43370   0.41450   Biso      1.000     H          0.097755  
         H16       1.0000    0.18280   0.93370   0.33550   Biso      1.000     H          0.097755  
         H17       1.0000    0.45010   0.58450   0.44230   Biso      1.000     H          0.037099  
         H18       1.0000    0.33640   0.04920   0.29480   Biso      1.000     H          0.046347  
         H19       1.0000    0.89210   0.59870   0.86950   Biso      1.000     H          0.354116  
         H20       1.0000    0.25000   0.63010   0.64630   Biso      1.000     H          0.061624  
         H21       1.0000    0.70860   0.50450   0.73330   Biso      1.000     H          0.385801  
         H22       1.0000    0.83600   0.76000   0.73900   Biso      1.000     H          0.389794  
         H23       1.0000    0.94770   0.79490   0.49170   Biso      1.000     H          0.101506  
         H24       1.0000    0.95010   0.91550   0.80770   Biso      1.000     H          0.037099  
         H25       1.0000    0.81720   0.06630   0.83550   Biso      1.000     H          0.097755  
         H26       1.0000    0.90130   0.39210   0.61950   Biso      1.000     H          0.354115  
         H27       1.0000    0.99550   0.20860   0.48330   Biso      1.000     H          0.385801  
         H28       1.0000    0.24000   0.16400   0.76100   Biso      1.000     H          0.389795  
         H29       1.0000    0.05230   0.20510   0.99170   Biso      1.000     H          0.101506  
         H30       1.0000    0.13010   0.25000   0.89630   Biso      1.000     H          0.061623  
         H31       1.0000    0.66360   0.95080   0.79480   Biso      1.000     H          0.046347  
         H32       1.0000    0.86990   0.75000   0.39630   Biso      1.000     H          0.061623  
         H33       1.0000    0.98560   0.34950   0.89550   Biso      1.000     H          0.027807  
         H34       1.0000    0.04920   0.33640   0.70520   Biso      1.000     H          0.046348  
         H35       1.0000    0.75000   0.86990   0.60370   Biso      1.000     H          0.061624  
         H36       1.0000    0.93370   0.18280   0.66450   Biso      1.000     H          0.097755  
         H37       1.0000    0.79490   0.94770   0.50830   Biso      1.000     H          0.101506  
         H38       1.0000    0.08450   0.04990   0.69230   Biso      1.000     H          0.037098  
         H39       1.0000    0.09870   0.60790   0.11950   Biso      1.000     H          0.354115  
         H40       1.0000    0.00450   0.79140   0.98330   Biso      1.000     H          0.3858    
         H41       1.0000    0.76000   0.83600   0.26100   Biso      1.000     H          0.389796  
         H42       1.0000    0.65050   0.01440   0.60450   Biso      1.000     H          0.027808  
         H43       1.0000    0.66400   0.26000   0.01100   Biso      1.000     H          0.389794  
         H44       1.0000    0.04990   0.08450   0.30770   Biso      1.000     H          0.037097  
         H45       1.0000    0.70510   0.44770   0.24170   Biso      1.000     H          0.101506  
         H46       1.0000    0.26000   0.66400   0.98900   Biso      1.000     H          0.389794  
         H47       1.0000    0.44770   0.70510   0.75830   Biso      1.000     H          0.101506  
         H48       1.0000    0.20860   0.99550   0.51670   Biso      1.000     H          0.3858    
         H49       1.0000    0.51440   0.84950   0.85450   Biso      1.000     H          0.027807  
         H50       1.0000    0.45080   0.83640   0.04480   Biso      1.000     H          0.046347  
         H51       1.0000    0.39210   0.90130   0.38050   Biso      1.000     H          0.354115  
         H52       1.0000    0.56630   0.68280   0.08550   Biso      1.000     H          0.097755  
         H53       1.0000    0.41550   0.54990   0.05770   Biso      1.000     H          0.037098  
         H54       1.0000    0.40130   0.10790   0.63050   Biso      1.000     H          0.354115  
         H55       1.0000    0.49550   0.29140   0.76670   Biso      1.000     H          0.3858    
         H56       1.0000    0.74000   0.33600   0.48900   Biso      1.000     H          0.389795  
         H57       1.0000    0.55230   0.29490   0.25830   Biso      1.000     H          0.101506  
         H58       1.0000    0.63010   0.25000   0.35370   Biso      1.000     H          0.061623  
         H59       1.0000    0.58450   0.45010   0.55770   Biso      1.000     H          0.037097  
         H60       1.0000    0.48560   0.15050   0.35450   Biso      1.000     H          0.027808  
         H61       1.0000    0.50450   0.70860   0.26670   Biso      1.000     H          0.3858    
         H62       1.0000    0.59870   0.89210   0.13050   Biso      1.000     H          0.354114  
         H63       1.0000    0.36990   0.75000   0.85370   Biso      1.000     H          0.061624  
         H64       1.0000    0.54990   0.41550   0.94230   Biso      1.000     H          0.037097  
         H65       1.0000    0.83640   0.45080   0.95520   Biso      1.000     H          0.046348  
         H66       1.0000    0.25000   0.13010   0.10370   Biso      1.000     H          0.061623  
         H67       1.0000    0.20510   0.05230   0.00830   Biso      1.000     H          0.101506  
         H68       1.0000    0.68280   0.56630   0.91450   Biso      1.000     H          0.097755  
         H69       1.0000    0.84950   0.51440   0.14550   Biso      1.000     H          0.027808  
         H70       1.0000    0.34950   0.98560   0.10450   Biso      1.000     H          0.027808  
         H71       1.0000    0.16400   0.24000   0.23900   Biso      1.000     H          0.389795  
         H72       1.0000    0.75000   0.36990   0.14630   Biso      1.000     H          0.061624  
         O1        1.0000    0.04260   0.20600   0.54290   Biso      1.000     O          -0.563863           
         O2        1.0000    0.70600   0.45740   0.79290   Biso      1.000     O          -0.563863           
         O3        1.0000    0.06730   0.11450   0.84900   Biso      1.000     O          -0.259156           
         O4        1.0000    0.11450   0.06730   0.15100   Biso      1.000     O          -0.259156           
         O5        1.0000    0.87620   0.24090   0.87730   Biso      1.000     O          -0.779506           
         O6        1.0000    0.56730   0.38550   0.40100   Biso      1.000     O          -0.259156           
         O7        1.0000    0.37620   0.25910   0.37270   Biso      1.000     O          -0.779506           
         O8        1.0000    0.83910   0.60230   0.92620   Biso      1.000     O          -0.546681           
         O9        1.0000    0.39770   0.16090   0.57380   Biso      1.000     O          -0.546681           
         O10       1.0000    0.61450   0.43270   0.09900   Biso      1.000     O          -0.259156           
         O11       1.0000    0.54260   0.29400   0.70710   Biso      1.000     O          -0.563863           
         O12       1.0000    0.24090   0.87620   0.12270   Biso      1.000     O          -0.779506           
         O13       1.0000    0.74090   0.62380   0.12730   Biso      1.000     O          -0.779506           
         O14       1.0000    0.18910   0.16160   0.70170   Biso      1.000     O          -0.592173           
         O15       1.0000    0.68910   0.33840   0.54830   Biso      1.000     O          -0.592173           
         O16       1.0000    0.89770   0.33910   0.67620   Biso      1.000     O          -0.546681           
         O17       1.0000    0.83840   0.81090   0.79830   Biso      1.000     O          -0.592173           
         O18       1.0000    0.62380   0.74090   0.87270   Biso      1.000     O          -0.779506           
         O19       1.0000    0.33840   0.68910   0.45170   Biso      1.000     O          -0.592173           
         O20       1.0000    0.29400   0.54260   0.29290   Biso      1.000     O          -0.563863           
         O21       1.0000    0.43270   0.61450   0.90100   Biso      1.000     O          -0.259156           
         O22       1.0000    0.16090   0.39770   0.42620   Biso      1.000     O          -0.546681           
         O23       1.0000    0.60230   0.83910   0.07380   Biso      1.000     O          -0.546681           
         O24       1.0000    0.25910   0.37620   0.62730   Biso      1.000     O          -0.779506           
         O25       1.0000    0.38550   0.56730   0.59900   Biso      1.000     O          -0.259156           
         O26       1.0000    0.20600   0.04260   0.45710   Biso      1.000     O          -0.563863           
         O27       1.0000    0.45740   0.70600   0.20710   Biso      1.000     O          -0.563863           
         O28       1.0000    0.66090   0.10230   0.82380   Biso      1.000     O          -0.546681           
         O29       1.0000    0.75910   0.12380   0.62270   Biso      1.000     O          -0.779506           
         O30       1.0000    0.31090   0.66160   0.04830   Biso      1.000     O          -0.592172           
         O31       1.0000    0.79400   0.95740   0.95710   Biso      1.000     O          -0.563863           
         O32       1.0000    0.66160   0.31090   0.95170   Biso      1.000     O          -0.592173           
         O33       1.0000    0.88550   0.93270   0.65100   Biso      1.000     O          -0.259156           
         O34       1.0000    0.16160   0.18910   0.29830   Biso      1.000     O          -0.592173           
         O35       1.0000    0.33910   0.89770   0.32380   Biso      1.000     O          -0.546681           
         O36       1.0000    0.81090   0.83840   0.20170   Biso      1.000     O          -0.592173           
         O37       1.0000    0.95740   0.79400   0.04290   Biso      1.000     O          -0.563863           
         O38       1.0000    0.10230   0.66090   0.17620   Biso      1.000     O          -0.546681           
         O39       1.0000    0.93270   0.88550   0.34900   Biso      1.000     O          -0.259156           
         O40       1.0000    0.12380   0.75910   0.37730   Biso      1.000     O          -0.779506 