
##########################################################################
#               Crystallographic Information Format file
#               Produced by PyCifRW module
#
#  This is a CIF file.  CIF has been adopted by the International
#  Union of Crystallography as the standard for data archiving and
#  transmission.
#
#  For information on this file format, follow the CIF links at
#  http://www.iucr.org
##########################################################################

data_image0

_cell_length_a                          14.873
_cell_length_b                          18.9293
_cell_length_c                          18.9293
_cell_angle_alpha                       66.6024
_cell_angle_beta                        74.8169
_cell_angle_gamma                       105.183
_symmetry_space_group_name_H-M          'P 1'
_symmetry_int_tables_number             1
loop_
  _symmetry_equiv_pos_as_xyz
         'x, y, z' 
loop_
  _atom_site_label
  _atom_site_occupancy
  _atom_site_fract_x
  _atom_site_fract_y
  _atom_site_fract_z
  _atom_site_thermal_displace_type
  _atom_site_B_iso_or_equiv
  _atom_site_type_symbol
  _atom_site_charge
         C1        1.0000    0.81581   0.34455   0.54254   Biso      1.000     C          0.660469  
         C2        1.0000    0.85851   0.45575   0.73178   Biso      1.000     C          -0.013678999999999998         
         C3        1.0000    0.59073   0.50959   0.12729   Biso      1.000     C          0.673181  
         C4        1.0000    0.63553   0.33740   0.28396   Biso      1.000     C          -0.29023000000000004          
         C5        1.0000    0.61585   0.38286   0.21626   Biso      1.000     C          -0.030262           
         C6        1.0000    0.61673   0.46092   0.19775   Biso      1.000     C          -0.049569           
         C7        1.0000    0.64071   0.49411   0.24678   Biso      1.000     C          -0.122715           
         C8        1.0000    0.66041   0.44908   0.31425   Biso      1.000     C          -0.169077           
         C9        1.0000    0.65553   0.36949   0.33483   Biso      1.000     C          0.14156400000000002           
         C10       1.0000    0.47964   0.90152   0.39525   Biso      1.000     C          0.622254  
         C11       1.0000    0.52036   0.09848   0.60475   Biso      1.000     C          0.622253  
         C12       1.0000    0.59774   0.23312   0.46591   Biso      1.000     C          -0.145853           
         C13       1.0000    0.66417   0.31818   0.41384   Biso      1.000     C          0.067812  
         C14       1.0000    0.73483   0.35500   0.43878   Biso      1.000     C          -0.139456           
         C15       1.0000    0.73754   0.30834   0.51548   Biso      1.000     C          -0.019916999999999997         
         C16       1.0000    0.66690   0.22510   0.56868   Biso      1.000     C          -0.133328           
         C17       1.0000    0.59724   0.18753   0.54425   Biso      1.000     C          -0.013335           
         C18       1.0000    0.08114   0.36312   0.50959   Biso      1.000     C          0.672903  
         C19       1.0000    0.29813   0.37864   0.33740   Biso      1.000     C          -0.290298           
         C20       1.0000    0.23299   0.40088   0.38286   Biso      1.000     C          -0.030092           
         C21       1.0000    0.15581   0.34133   0.46092   Biso      1.000     C          -0.048978           
         C22       1.0000    0.14660   0.25911   0.49411   Biso      1.000     C          -0.126926           
         C23       1.0000    0.21133   0.23667   0.44908   Biso      1.000     C          -0.166353           
         C24       1.0000    0.28604   0.29568   0.36949   Biso      1.000     C          0.140498  
         C25       1.0000    0.47126   0.11291   0.34455   Biso      1.000     C          0.661918  
         C26       1.0000    0.42188   0.29677   0.09848   Biso      1.000     C          0.6236550000000001  
         C27       1.0000    0.36462   0.30097   0.23312   Biso      1.000     C          -0.14666300000000002          
         C28       1.0000    0.34599   0.26798   0.31818   Biso      1.000     C          0.066847  
         C29       1.0000    0.37983   0.20622   0.35500   Biso      1.000     C          -0.138106           
         C30       1.0000    0.42920   0.17618   0.30834   Biso      1.000     C          -0.020649           
         C31       1.0000    0.76442   0.43132   0.79378   Biso      1.000     C          -0.13451400000000002          
         C32       1.0000    0.44180   0.20622   0.22510   Biso      1.000     C          -0.140122           
         C33       1.0000    0.74698   0.48452   0.82382   Biso      1.000     C          -0.018683           
         C34       1.0000    0.92199   0.58616   0.73202   Biso      1.000     C          0.067713  
         C35       1.0000    0.26517   0.64500   0.56122   Biso      1.000     C          -0.139456           
         C36       1.0000    0.26246   0.69166   0.48452   Biso      1.000     C          -0.019916999999999997         
         C37       1.0000    0.33310   0.77490   0.43132   Biso      1.000     C          -0.133328           
         C38       1.0000    0.40276   0.81247   0.45575   Biso      1.000     C          -0.013337           
         C39       1.0000    0.91886   0.63688   0.49041   Biso      1.000     C          0.672903  
         C40       1.0000    0.70187   0.62136   0.66260   Biso      1.000     C          -0.290298           
         C41       1.0000    0.76701   0.59912   0.61714   Biso      1.000     C          -0.030092           
         C42       1.0000    0.84419   0.65867   0.53908   Biso      1.000     C          -0.048978           
         C43       1.0000    0.85340   0.74089   0.50589   Biso      1.000     C          -0.126926           
         C44       1.0000    0.78867   0.76333   0.55092   Biso      1.000     C          -0.166353           
         C45       1.0000    0.71396   0.70432   0.63051   Biso      1.000     C          0.140498  
         C46       1.0000    0.52874   0.88709   0.65545   Biso      1.000     C          0.661918  
         C47       1.0000    0.57812   0.70323   0.90152   Biso      1.000     C          0.6236550000000001  
         C48       1.0000    0.63538   0.69903   0.76688   Biso      1.000     C          -0.14666300000000002          
         C49       1.0000    0.65401   0.73202   0.68182   Biso      1.000     C          0.066847  
         C50       1.0000    0.62017   0.79378   0.64500   Biso      1.000     C          -0.138106           
         C51       1.0000    0.57080   0.82382   0.69166   Biso      1.000     C          -0.020649           
         C52       1.0000    0.55820   0.79378   0.77490   Biso      1.000     C          -0.140122           
         C53       1.0000    0.59029   0.73178   0.81247   Biso      1.000     C          -0.01214  
         C54       1.0000    0.28198   0.87271   0.63688   Biso      1.000     C          0.670995  
         C55       1.0000    0.08051   0.71604   0.62136   Biso      1.000     C          -0.291404           
         C56       1.0000    0.16789   0.78374   0.59912   Biso      1.000     C          -0.029342           
         C57       1.0000    0.18552   0.80225   0.65867   Biso      1.000     C          -0.048391           
         C58       1.0000    0.11251   0.75322   0.74089   Biso      1.000     C          -0.124982           
         C59       1.0000    0.02534   0.68575   0.76333   Biso      1.000     C          -0.166741           
         C60       1.0000    0.00964   0.66517   0.70432   Biso      1.000     C          0.14061099999999999           
         C61       1.0000    0.64165   0.45746   0.88709   Biso      1.000     C          0.660377  
         C62       1.0000    0.87489   0.39525   0.70323   Biso      1.000     C          0.6242939999999999  
         C63       1.0000    0.93635   0.53409   0.69903   Biso      1.000     C          -0.14583800000000002          
         C64       1.0000    0.82639   0.56122   0.79378   Biso      1.000     C          -0.140298           
         C65       1.0000    0.40971   0.26822   0.18753   Biso      1.000     C          -0.01214  
         C66       1.0000    0.71802   0.12729   0.36312   Biso      1.000     C          0.670996  
         C67       1.0000    0.91949   0.28396   0.37864   Biso      1.000     C          -0.291405           
         C68       1.0000    0.40927   0.49041   0.87271   Biso      1.000     C          0.673181  
         C69       1.0000    0.36447   0.66260   0.71604   Biso      1.000     C          -0.29023000000000004          
         C70       1.0000    0.38415   0.61714   0.78374   Biso      1.000     C          -0.030262           
         C71       1.0000    0.38327   0.53908   0.80225   Biso      1.000     C          -0.049569           
         C72       1.0000    0.35929   0.50589   0.75322   Biso      1.000     C          -0.122715           
         C73       1.0000    0.33959   0.55092   0.68575   Biso      1.000     C          -0.169077           
         C74       1.0000    0.34447   0.63051   0.66517   Biso      1.000     C          0.14156400000000002           
         C75       1.0000    0.18419   0.65545   0.45746   Biso      1.000     C          0.660469  
         C76       1.0000    0.33583   0.68182   0.58616   Biso      1.000     C          0.067812  
         C77       1.0000    0.14149   0.54425   0.26822   Biso      1.000     C          -0.013678999999999998         
         C78       1.0000    0.23558   0.56868   0.20622   Biso      1.000     C          -0.13451400000000002          
         C79       1.0000    0.40226   0.76688   0.53409   Biso      1.000     C          -0.145851           
         C80       1.0000    0.17361   0.43878   0.20622   Biso      1.000     C          -0.140301           
         C81       1.0000    0.07801   0.41384   0.26798   Biso      1.000     C          0.067714  
         C82       1.0000    0.06365   0.46591   0.30097   Biso      1.000     C          -0.14583800000000002          
         C83       1.0000    0.12511   0.60475   0.29677   Biso      1.000     C          0.6242939999999999  
         C84       1.0000    0.35835   0.54254   0.11291   Biso      1.000     C          0.660377  
         C85       1.0000    0.25302   0.51548   0.17618   Biso      1.000     C          -0.018680000000000002         
         C86       1.0000    0.97466   0.31425   0.23667   Biso      1.000     C          -0.166745           
         C87       1.0000    0.88749   0.24678   0.25911   Biso      1.000     C          -0.12497799999999999          
         C88       1.0000    0.81448   0.19775   0.34133   Biso      1.000     C          -0.048397           
         C89       1.0000    0.83211   0.21626   0.40088   Biso      1.000     C          -0.029336           
         C90       1.0000    0.99036   0.33483   0.29568   Biso      1.000     C          0.140612  
         H1        1.0000    0.66490   0.19070   0.61900   Biso      1.000     H          0.126978  
         H2        1.0000    0.33990   0.40760   0.30090   Biso      1.000     H          0.176092  
         H3        1.0000    0.23910   0.45960   0.35680   Biso      1.000     H          0.096211  
         H4        1.0000    0.09510   0.22260   0.53530   Biso      1.000     H          0.119328  
         H5        1.0000    0.21770   0.18990   0.47140   Biso      1.000     H          0.115652  
         H6        1.0000    0.34890   0.34480   0.20270   Biso      1.000     H          0.129444  
         H7        1.0000    0.47420   0.19030   0.19070   Biso      1.000     H          0.130903  
         H8        1.0000    0.93230   0.29150   0.40760   Biso      1.000     H          0.175663  
         H9        1.0000    0.77950   0.18360   0.45960   Biso      1.000     H          0.09547699999999999           
         H10       1.0000    0.78780   0.41650   0.40110   Biso      1.000     H          0.12019400000000001           
         H11       1.0000    0.02780   0.33870   0.18990   Biso      1.000     H          0.115972  
         H12       1.0000    0.00410   0.45250   0.34480   Biso      1.000     H          0.129205  
         H13       1.0000    0.18890   0.40110   0.18240   Biso      1.000     H          0.120369  
         H14       1.0000    0.28390   0.61900   0.19030   Biso      1.000     H          0.126823  
         H15       1.0000    0.37130   0.18240   0.41650   Biso      1.000     H          0.12004000000000001           
         H16       1.0000    0.87250   0.24210   0.22260   Biso      1.000     H          0.11826400000000001           
         H17       1.0000    0.55160   0.20270   0.45250   Biso      1.000     H          0.128959  
         H18       1.0000    0.63040   0.53530   0.24210   Biso      1.000     H          0.118023  
         H19       1.0000    0.35920   0.69910   0.70850   Biso      1.000     H          0.17565699999999998           
         H20       1.0000    0.40410   0.64320   0.81640   Biso      1.000     H          0.09539199999999999           
         H21       1.0000    0.36960   0.46470   0.75790   Biso      1.000     H          0.118023  
         H22       1.0000    0.31090   0.52860   0.66130   Biso      1.000     H          0.116276  
         H23       1.0000    0.44840   0.79730   0.54750   Biso      1.000     H          0.128958  
         H24       1.0000    0.21220   0.58350   0.59890   Biso      1.000     H          0.12019400000000001           
         H25       1.0000    0.33510   0.80930   0.38100   Biso      1.000     H          0.126978  
         H26       1.0000    0.66010   0.59240   0.69910   Biso      1.000     H          0.176092  
         H27       1.0000    0.76090   0.54040   0.64320   Biso      1.000     H          0.096211  
         H28       1.0000    0.90490   0.77740   0.46470   Biso      1.000     H          0.119328  
         H29       1.0000    0.68910   0.47140   0.33870   Biso      1.000     H          0.116276  
         H30       1.0000    0.78230   0.81010   0.52860   Biso      1.000     H          0.115652  
         H31       1.0000    0.62870   0.81760   0.58350   Biso      1.000     H          0.12004000000000001           
         H32       1.0000    0.52580   0.80970   0.80930   Biso      1.000     H          0.130903  
         H33       1.0000    0.06770   0.70850   0.59240   Biso      1.000     H          0.175663  
         H34       1.0000    0.22050   0.81640   0.54040   Biso      1.000     H          0.09547699999999999           
         H35       1.0000    0.12750   0.75790   0.77740   Biso      1.000     H          0.11826500000000001           
         H36       1.0000    0.97220   0.66130   0.81010   Biso      1.000     H          0.115972  
         H37       1.0000    0.81110   0.59890   0.81760   Biso      1.000     H          0.120369  
         H38       1.0000    0.71610   0.38100   0.80970   Biso      1.000     H          0.126823  
         H39       1.0000    0.64080   0.30090   0.29150   Biso      1.000     H          0.17565699999999998           
         H40       1.0000    0.59590   0.35680   0.18360   Biso      1.000     H          0.09539199999999999           
         H41       1.0000    0.65110   0.65520   0.79730   Biso      1.000     H          0.129444  
         H42       1.0000    0.99590   0.54750   0.65520   Biso      1.000     H          0.129205  
         Mg1       1.0000    0.09877   0.71502   0.32577   Biso      1.000     Mg          1.459247  
         Mg2       1.0000    0.50000   0.00000   0.50000   Biso      1.000     Mg          1.4094360000000001  
         Mg3       1.0000    0.50000   0.50000   0.00000   Biso      1.000     Mg          1.411155  
         Mg4       1.0000    0.00000   0.50000   0.50000   Biso      1.000     Mg          1.409922  
         Mg5       1.0000    0.61625   0.04079   0.28498   Biso      1.000     Mg          1.4593200000000002  
         Mg6       1.0000    0.57546   0.67423   0.04079   Biso      1.000     Mg          1.459263  
         Mg7       1.0000    0.90123   0.28498   0.67423   Biso      1.000     Mg          1.459247  
         Mg8       1.0000    0.38375   0.95921   0.71502   Biso      1.000     Mg          1.4593200000000002  
         Mg9       1.0000    0.42454   0.32577   0.95921   Biso      1.000     Mg          1.459263  
         O1        1.0000    0.81819   0.31779   0.75282   Biso      1.000     O          -0.6614949999999999           
         O2        1.0000    0.62677   0.50497   0.91510   Biso      1.000     O          -0.6324270000000001           
         O3        1.0000    0.57678   0.38725   0.90655   Biso      1.000     O          -0.716565           
         O4        1.0000    0.34742   0.91552   0.56302   Biso      1.000     O          -0.631323           
         O5        1.0000    0.28773   0.88166   0.69773   Biso      1.000     O          -0.74729  
         O6        1.0000    0.58086   0.63385   0.94584   Biso      1.000     O          -0.706663           
         O7        1.0000    0.57101   0.75282   0.92939   Biso      1.000     O          -0.661721           
         O8        1.0000    0.98546   0.69773   0.42061   Biso      1.000     O          -0.747955           
         O9        1.0000    0.48333   0.90655   0.70620   Biso      1.000     O          -0.71729  
         O10       1.0000    0.91044   0.56302   0.52146   Biso      1.000     O          -0.6321289999999999           
         O11       1.0000    0.94701   0.42031   0.63385   Biso      1.000     O          -0.707206           
         O12       1.0000    0.52670   0.94584   0.42031   Biso      1.000     O          -0.706462           
         O13       1.0000    0.50040   0.92939   0.31779   Biso      1.000     O          -0.660573           
         O14       1.0000    0.12180   0.57993   0.50497   Biso      1.000     O          -0.632412           
         O15       1.0000    0.18953   0.70620   0.38725   Biso      1.000     O          -0.7164659999999999           
         O16       1.0000    0.54187   0.91510   0.57993   Biso      1.000     O          -0.63242  
         O17       1.0000    0.59393   0.57939   0.11834   Biso      1.000     O          -0.7486619999999999           
         O18       1.0000    0.49960   0.07061   0.68221   Biso      1.000     O          -0.660573           
         O19       1.0000    0.81047   0.29380   0.61275   Biso      1.000     O          -0.7164659999999999           
         O20       1.0000    0.05299   0.57969   0.36615   Biso      1.000     O          -0.707206           
         O21       1.0000    0.18181   0.68221   0.24718   Biso      1.000     O          -0.6614949999999999           
         O22       1.0000    0.37323   0.49503   0.08490   Biso      1.000     O          -0.6324270000000001           
         O23       1.0000    0.42322   0.61275   0.09345   Biso      1.000     O          -0.716565           
         O24       1.0000    0.65258   0.08448   0.43698   Biso      1.000     O          -0.631323           
         O25       1.0000    0.71227   0.11834   0.30227   Biso      1.000     O          -0.74729  
         O26       1.0000    0.41914   0.36615   0.05416   Biso      1.000     O          -0.706663           
         O27       1.0000    0.42899   0.24718   0.07061   Biso      1.000     O          -0.661721           
         O28       1.0000    0.45813   0.08490   0.42007   Biso      1.000     O          -0.632419           
         O29       1.0000    0.51667   0.09345   0.29380   Biso      1.000     O          -0.71729  
         O30       1.0000    0.08956   0.43698   0.47854   Biso      1.000     O          -0.6321289999999999           
         O31       1.0000    0.01454   0.30227   0.57939   Biso      1.000     O          -0.747955           
         O32       1.0000    0.47330   0.05416   0.57969   Biso      1.000     O          -0.706462           
         O33       1.0000    0.43190   0.52146   0.91552   Biso      1.000     O          -0.632104           
         O34       1.0000    0.87820   0.42007   0.49503   Biso      1.000     O          -0.632412           
         O35       1.0000    0.56810   0.47854   0.08448   Biso      1.000     O          -0.632104           
         O36       1.0000    0.40607   0.42061   0.88166   Biso      1.000     O          -0.7486619999999999 