
##########################################################################
#               Crystallographic Information Format file
#               Produced by PyCifRW module
#
#  This is a CIF file.  CIF has been adopted by the International
#  Union of Crystallography as the standard for data archiving and
#  transmission.
#
#  For information on this file format, follow the CIF links at
#  http://www.iucr.org
##########################################################################

data_image0

_cell_length_a                          13.854
_cell_length_b                          10.832
_cell_length_c                          18.731
_cell_angle_alpha                       90
_cell_angle_beta                        130.624
_cell_angle_gamma                       90
_symmetry_space_group_name_H-M          'P 1'
_symmetry_int_tables_number             1
loop_
  _symmetry_equiv_pos_as_xyz
         'x, y, z' 
loop_
  _atom_site_label
  _atom_site_occupancy
  _atom_site_fract_x
  _atom_site_fract_y
  _atom_site_fract_z
  _atom_site_thermal_displace_type
  _atom_site_B_iso_or_equiv
  _atom_site_type_symbol
  _atom_site_charge
         C1        1.0000    0.57670   0.32520   0.92570   Biso      1.000     C          -0.27565700000000004          
         C2        1.0000    0.89090   0.24420   0.77340   Biso      1.000     C          -0.111579           
         C3        1.0000    0.61280   0.58240   0.10510   Biso      1.000     C          -0.166507           
         C4        1.0000    0.82360   0.13850   0.72080   Biso      1.000     C          -0.036101           
         C5        1.0000    0.74320   0.07790   0.72810   Biso      1.000     C          -0.176244           
         C6        1.0000    0.73010   0.12850   0.78990   Biso      1.000     C          0.180673  
         C7        1.0000    0.67760   0.17480   0.87270   Biso      1.000     C          0.276476  
         C8        1.0000    0.44580   0.19970   0.11050   Biso      1.000     C          0.565465  
         C9        1.0000    0.19660   0.51950   0.85750   Biso      1.000     C          0.548736  
         C10       1.0000    0.87900   0.70540   0.33320   Biso      1.000     C          -0.107714           
         C11       1.0000    0.51010   0.26890   0.01930   Biso      1.000     C          -0.182848           
         C12       1.0000    0.42560   0.27710   0.03570   Biso      1.000     C          -0.001472           
         C13       1.0000    0.32230   0.35670   0.98170   Biso      1.000     C          -0.138851           
         C14       1.0000    0.30450   0.42940   0.91260   Biso      1.000     C          -0.010597           
         C15       1.0000    0.79620   0.76560   0.34010   Biso      1.000     C          0.161959  
         C16       1.0000    0.38720   0.41760   0.89490   Biso      1.000     C          -0.16651300000000002          
         C17       1.0000    0.48930   0.33720   0.94740   Biso      1.000     C          0.14086300000000002           
         C18       1.0000    0.91460   0.20730   0.35730   Biso      1.000     C          0.118341  
         C19       1.0000    0.32230   0.64330   0.48170   Biso      1.000     C          -0.138846           
         C20       1.0000    0.91420   0.13770   0.41870   Biso      1.000     C          -0.155919           
         C21       1.0000    0.89090   0.75580   0.27340   Biso      1.000     C          -0.11149400000000001          
         C22       1.0000    0.87900   0.29460   0.83320   Biso      1.000     C          -0.10762200000000001          
         C23       1.0000    0.79620   0.23440   0.84010   Biso      1.000     C          0.161913  
         C24       1.0000    0.91460   0.79270   0.85730   Biso      1.000     C          0.11834000000000001           
         C25       1.0000    0.30450   0.57060   0.41260   Biso      1.000     C          -0.010598           
         C26       1.0000    0.51010   0.73110   0.51930   Biso      1.000     C          -0.182833           
         C27       1.0000    0.38720   0.58240   0.39490   Biso      1.000     C          -0.16650299999999998          
         C28       1.0000    0.48930   0.66280   0.44740   Biso      1.000     C          0.14086700000000002           
         C29       1.0000    0.19660   0.48050   0.35750   Biso      1.000     C          0.5487310000000001  
         C30       1.0000    0.57670   0.67480   0.42570   Biso      1.000     C          -0.27564299999999997          
         C31       1.0000    0.32240   0.82520   0.12730   Biso      1.000     C          0.276488  
         C32       1.0000    0.26990   0.87150   0.21010   Biso      1.000     C          0.18065799999999999           
         C33       1.0000    0.25680   0.92210   0.27190   Biso      1.000     C          -0.176246           
         C34       1.0000    0.12100   0.70540   0.16680   Biso      1.000     C          -0.10773599999999998          
         C35       1.0000    0.44580   0.80030   0.61050   Biso      1.000     C          0.565415  
         C36       1.0000    0.67760   0.82520   0.37270   Biso      1.000     C          0.276491  
         C37       1.0000    0.10910   0.75580   0.22660   Biso      1.000     C          -0.11149500000000001          
         C38       1.0000    0.73010   0.87150   0.28990   Biso      1.000     C          0.180672  
         C39       1.0000    0.07210   0.90990   0.88450   Biso      1.000     C          0.056989  
         C40       1.0000    0.74320   0.92210   0.22810   Biso      1.000     C          -0.176236           
         C41       1.0000    0.07720   0.98490   0.94640   Biso      1.000     C          -0.176296           
         C42       1.0000    0.99830   0.96130   0.96630   Biso      1.000     C          0.10981400000000001           
         C43       1.0000    0.91420   0.86230   0.91870   Biso      1.000     C          -0.155928           
         C44       1.0000    0.82360   0.86150   0.22080   Biso      1.000     C          -0.036266           
         C45       1.0000    0.17640   0.86150   0.27920   Biso      1.000     C          -0.036336           
         C46       1.0000    0.20380   0.76560   0.15990   Biso      1.000     C          0.161961  
         C47       1.0000    0.42560   0.72290   0.53570   Biso      1.000     C          -0.001456           
         C48       1.0000    0.48990   0.73110   0.98070   Biso      1.000     C          -0.182821           
         C49       1.0000    0.57440   0.72290   0.96430   Biso      1.000     C          -0.0014609999999999998        
         C50       1.0000    0.25680   0.07790   0.77190   Biso      1.000     C          -0.176252           
         C51       1.0000    0.26990   0.12850   0.71010   Biso      1.000     C          0.180668  
         C52       1.0000    0.08540   0.20730   0.14270   Biso      1.000     C          0.118345  
         C53       1.0000    0.32240   0.17480   0.62730   Biso      1.000     C          0.27648   
         C54       1.0000    0.55420   0.19970   0.38950   Biso      1.000     C          0.56548   
         C55       1.0000    0.80340   0.51950   0.64250   Biso      1.000     C          0.548758  
         C56       1.0000    0.92280   0.01510   0.05360   Biso      1.000     C          -0.176308           
         C57       1.0000    0.00170   0.03870   0.03370   Biso      1.000     C          0.10981800000000001           
         C58       1.0000    0.48990   0.26890   0.48070   Biso      1.000     C          -0.182835           
         C59       1.0000    0.57440   0.27710   0.46430   Biso      1.000     C          -0.001463           
         C60       1.0000    0.67770   0.64330   0.01830   Biso      1.000     C          -0.138855           
         C61       1.0000    0.67770   0.35670   0.51830   Biso      1.000     C          -0.13886400000000002          
         C62       1.0000    0.69550   0.42940   0.58740   Biso      1.000     C          -0.010588           
         C63       1.0000    0.69550   0.57060   0.08740   Biso      1.000     C          -0.010591           
         C64       1.0000    0.61280   0.41760   0.60510   Biso      1.000     C          -0.166508           
         C65       1.0000    0.51070   0.33720   0.55260   Biso      1.000     C          0.14087   
         C66       1.0000    0.17640   0.13850   0.77920   Biso      1.000     C          -0.03614  
         C67       1.0000    0.42330   0.67480   0.07430   Biso      1.000     C          -0.27563699999999997          
         C68       1.0000    0.42330   0.32520   0.57430   Biso      1.000     C          -0.27565300000000004          
         C69       1.0000    0.10910   0.24420   0.72660   Biso      1.000     C          -0.11156500000000001          
         C70       1.0000    0.99830   0.03870   0.46630   Biso      1.000     C          0.10981600000000001           
         C71       1.0000    0.08580   0.13770   0.08130   Biso      1.000     C          -0.155917           
         C72       1.0000    0.07720   0.01510   0.44640   Biso      1.000     C          -0.176302           
         C73       1.0000    0.92790   0.90990   0.61550   Biso      1.000     C          0.056987  
         C74       1.0000    0.07210   0.09010   0.38450   Biso      1.000     C          0.056996000000000005          
         C75       1.0000    0.92280   0.98490   0.55360   Biso      1.000     C          -0.176302           
         C76       1.0000    0.51070   0.66280   0.05260   Biso      1.000     C          0.140876  
         C77       1.0000    0.00170   0.96130   0.53370   Biso      1.000     C          0.10981500000000001           
         C78       1.0000    0.08580   0.86230   0.58130   Biso      1.000     C          -0.155924           
         C79       1.0000    0.55420   0.80030   0.88950   Biso      1.000     C          0.565435  
         C80       1.0000    0.08540   0.79270   0.64270   Biso      1.000     C          0.118352  
         C81       1.0000    0.20380   0.23440   0.65990   Biso      1.000     C          0.161951  
         C82       1.0000    0.80340   0.48050   0.14250   Biso      1.000     C          0.548736  
         C83       1.0000    0.12100   0.29460   0.66680   Biso      1.000     C          -0.10766099999999999          
         C84       1.0000    0.92790   0.09010   0.11550   Biso      1.000     C          0.056988  
         Cd1       1.0000    1.00000   0.67664   0.75000   Biso      1.000     Cd          0.8092689999999999  
         Cd2       1.0000    0.00000   0.32336   0.25000   Biso      1.000     Cd          0.809253  
         Cd3       1.0000    0.50000   0.94745   0.75000   Biso      1.000     Cd          0.846076  
         Cd4       1.0000    0.50000   0.05255   0.25000   Biso      1.000     Cd          0.846124  
         H1        1.0000    0.46220   0.63660   0.13450   Biso      1.000     H          0.156693  
         H2        1.0000    0.58070   0.78240   0.55660   Biso      1.000     H          0.12173699999999998           
         H3        1.0000    0.85810   0.15660   0.42850   Biso      1.000     H          0.13946   
         H4        1.0000    0.69990   0.99320   0.19370   Biso      1.000     H          0.135349  
         H5        1.0000    0.73510   0.63850   0.00830   Biso      1.000     H          0.129737  
         H6        1.0000    0.94560   0.71910   0.26710   Biso      1.000     H          0.10864800000000001           
         H7        1.0000    0.41930   0.78240   0.94340   Biso      1.000     H          0.12173800000000001           
         H8        1.0000    0.92330   0.63480   0.36780   Biso      1.000     H          0.143718  
         H9        1.0000    0.12660   0.07280   0.37300   Biso      1.000     H          0.08294800000000001           
         H10       1.0000    0.13340   0.94890   0.47470   Biso      1.000     H          0.131819  
         H11       1.0000    0.85720   0.27230   0.32610   Biso      1.000     H          0.109492  
         H12       1.0000    0.34360   0.63290   0.02630   Biso      1.000     H          0.148676  
         H13       1.0000    0.83360   0.89170   0.17950   Biso      1.000     H          0.10104400000000001           
         H14       1.0000    0.83360   0.10830   0.67950   Biso      1.000     H          0.100982  
         H15       1.0000    0.37370   0.53590   0.34740   Biso      1.000     H          0.12951400000000002           
         H16       1.0000    0.87340   0.92720   0.62700   Biso      1.000     H          0.082949  
         H17       1.0000    0.86660   0.05110   0.52530   Biso      1.000     H          0.131823  
         H18       1.0000    0.14190   0.84340   0.57150   Biso      1.000     H          0.139461  
         H19       1.0000    0.14280   0.72770   0.67390   Biso      1.000     H          0.10948599999999999           
         H20       1.0000    0.07670   0.36520   0.63220   Biso      1.000     H          0.143682  
         H21       1.0000    0.05440   0.28090   0.73290   Biso      1.000     H          0.108642  
         H22       1.0000    0.16640   0.10830   0.82050   Biso      1.000     H          0.101005  
         H23       1.0000    0.30010   0.00680   0.80630   Biso      1.000     H          0.13533299999999998           
         H24       1.0000    0.41930   0.21760   0.44340   Biso      1.000     H          0.12173699999999998           
         H25       1.0000    0.73510   0.36150   0.50830   Biso      1.000     H          0.129741  
         H26       1.0000    0.62630   0.46410   0.65260   Biso      1.000     H          0.129522  
         H27       1.0000    0.46220   0.36340   0.63450   Biso      1.000     H          0.15668900000000002           
         H28       1.0000    0.34360   0.36710   0.52630   Biso      1.000     H          0.14867   
         H29       1.0000    0.86660   0.94890   0.02530   Biso      1.000     H          0.13181600000000002           
         H30       1.0000    0.87340   0.07280   0.12700   Biso      1.000     H          0.08294800000000001           
         H31       1.0000    0.14190   0.15660   0.07150   Biso      1.000     H          0.139456  
         H32       1.0000    0.14280   0.27230   0.17390   Biso      1.000     H          0.109477  
         H33       1.0000    0.07670   0.63480   0.13220   Biso      1.000     H          0.143714  
         H34       1.0000    0.05440   0.71910   0.23290   Biso      1.000     H          0.10864700000000001           
         H35       1.0000    0.53780   0.63660   0.36550   Biso      1.000     H          0.15671   
         H36       1.0000    0.65640   0.63290   0.47370   Biso      1.000     H          0.148679  
         H37       1.0000    0.30010   0.99320   0.30630   Biso      1.000     H          0.135351  
         H38       1.0000    0.16640   0.89170   0.32050   Biso      1.000     H          0.10105   
         H39       1.0000    0.12660   0.92720   0.87300   Biso      1.000     H          0.082938  
         H40       1.0000    0.13340   0.05110   0.97470   Biso      1.000     H          0.13181600000000002           
         H41       1.0000    0.85810   0.84340   0.92850   Biso      1.000     H          0.139455  
         H42       1.0000    0.26490   0.63850   0.49170   Biso      1.000     H          0.129724  
         H43       1.0000    0.85720   0.72770   0.82610   Biso      1.000     H          0.109491  
         H44       1.0000    0.94560   0.28090   0.76710   Biso      1.000     H          0.10863199999999999           
         H45       1.0000    0.69990   0.00680   0.69370   Biso      1.000     H          0.135324  
         H46       1.0000    0.58070   0.21760   0.05660   Biso      1.000     H          0.12173099999999999           
         H47       1.0000    0.26490   0.36150   0.99170   Biso      1.000     H          0.129716  
         H48       1.0000    0.37370   0.46410   0.84740   Biso      1.000     H          0.12950599999999998           
         H49       1.0000    0.53780   0.36340   0.86550   Biso      1.000     H          0.15668900000000002           
         H50       1.0000    0.65640   0.36710   0.97370   Biso      1.000     H          0.148668  
         H51       1.0000    0.92330   0.36520   0.86780   Biso      1.000     H          0.143663  
         H52       1.0000    0.62630   0.53590   0.15260   Biso      1.000     H          0.129525  
         N1        1.0000    0.34450   0.09220   0.68790   Biso      1.000     N          -0.43922  
         N2        1.0000    0.76130   0.73720   0.39230   Biso      1.000     N          -0.375418           
         N3        1.0000    0.23870   0.26280   0.60770   Biso      1.000     N          -0.375418           
         N4        1.0000    0.00690   0.81370   0.65990   Biso      1.000     N          -0.226582           
         N5        1.0000    0.99310   0.81370   0.84010   Biso      1.000     N          -0.22659  
         N6        1.0000    0.00690   0.18630   0.15990   Biso      1.000     N          -0.22659400000000002          
         N7        1.0000    0.23870   0.73720   0.10770   Biso      1.000     N          -0.375487           
         N8        1.0000    0.34450   0.90780   0.18790   Biso      1.000     N          -0.43920200000000004          
         N9        1.0000    0.65550   0.90780   0.31210   Biso      1.000     N          -0.43920299999999995          
         N10       1.0000    0.99310   0.18630   0.34010   Biso      1.000     N          -0.226586           
         N11       1.0000    0.76130   0.26280   0.89230   Biso      1.000     N          -0.37535  
         N12       1.0000    0.65550   0.09220   0.81210   Biso      1.000     N          -0.439225           
         O1        1.0000    0.63990   0.18900   0.38530   Biso      1.000     O          -0.552419           
         O2        1.0000    0.11770   0.52440   0.87040   Biso      1.000     O          -0.5424180000000001           
         O3        1.0000    0.81230   0.58940   0.69960   Biso      1.000     O          -0.529638           
         O4        1.0000    0.88230   0.52440   0.62960   Biso      1.000     O          -0.542474           
         O5        1.0000    0.45070   0.14570   0.33170   Biso      1.000     O          -0.534301           
         O6        1.0000    0.18770   0.58940   0.80040   Biso      1.000     O          -0.52962  
         O7        1.0000    0.45070   0.85430   0.83170   Biso      1.000     O          -0.534253           
         O8        1.0000    0.11770   0.47560   0.37040   Biso      1.000     O          -0.542427           
         O9        1.0000    0.18770   0.41060   0.30040   Biso      1.000     O          -0.5295989999999999           
         O10       1.0000    0.36010   0.81100   0.61470   Biso      1.000     O          -0.552391           
         O11       1.0000    0.54930   0.85430   0.66830   Biso      1.000     O          -0.534292           
         O12       1.0000    0.88230   0.47560   0.12960   Biso      1.000     O          -0.542421           
         O13       1.0000    0.81230   0.41060   0.19960   Biso      1.000     O          -0.5295989999999999           
         O14       1.0000    0.63990   0.81100   0.88530   Biso      1.000     O          -0.552347           
         O15       1.0000    0.36010   0.18900   0.11470   Biso      1.000     O          -0.552403           
         O16       1.0000    0.54930   0.14570   0.16830   Biso      1.000     O          -0.53432  
         S1        1.0000    0.39397   0.83480   0.07785   Biso      1.000     S          0.11393900000000001           
         S2        1.0000    0.60603   0.16520   0.92215   Biso      1.000     S          0.11402899999999999           
         S3        1.0000    0.39397   0.16520   0.57785   Biso      1.000     S          0.11401099999999999           
         S4        1.0000    0.60603   0.83480   0.42215   Biso      1.000     S          0.114032 