
##########################################################################
#               Crystallographic Information Format file
#               Produced by PyCifRW module
#
#  This is a CIF file.  CIF has been adopted by the International
#  Union of Crystallography as the standard for data archiving and
#  transmission.
#
#  For information on this file format, follow the CIF links at
#  http://www.iucr.org
##########################################################################

data_image0

_cell_length_a                          11.2622
_cell_length_b                          13.2348
_cell_length_c                          13.2348
_cell_angle_alpha                       101.488
_cell_angle_beta                        106.743
_cell_angle_gamma                       73.2566
_symmetry_space_group_name_H-M          'P 1'
_symmetry_int_tables_number             1
loop_
  _symmetry_equiv_pos_as_xyz
         'x, y, z' 
loop_
  _atom_site_label
  _atom_site_occupancy
  _atom_site_fract_x
  _atom_site_fract_y
  _atom_site_fract_z
  _atom_site_thermal_displace_type
  _atom_site_B_iso_or_equiv
  _atom_site_type_symbol
  _atom_site_charge
         C1        1.0000    0.84130   0.32740   0.94000   Biso      1.000     C          0.610558  
         C2        1.0000    0.29550   0.37740   0.04040   Biso      1.000     C          0.002773  
         C3        1.0000    0.42800   0.36840   0.07620   Biso      1.000     C          -0.05697000000000001          
         C4        1.0000    0.47230   0.45870   0.11150   Biso      1.000     C          -0.167811           
         C5        1.0000    0.44400   0.65500   0.14960   Biso      1.000     C          0.599268  
         C6        1.0000    0.15870   0.67260   0.06000   Biso      1.000     C          0.610558  
         C7        1.0000    0.23980   0.28190   0.01570   Biso      1.000     C          0.616825  
         C8        1.0000    0.51990   0.26120   0.06900   Biso      1.000     C          0.635012  
         C9        1.0000    0.11170   0.10960   0.56000   Biso      1.000     C          -0.097428           
         C10       1.0000    0.24220   0.06870   0.56910   Biso      1.000     C          -0.045048000000000005         
         C11       1.0000    0.28650   0.03550   0.47690   Biso      1.000     C          -0.180296           
         C12       1.0000    0.20450   0.04040   0.37740   Biso      1.000     C          0.002761  
         C13       1.0000    0.07200   0.07620   0.36840   Biso      1.000     C          -0.056971           
         C14       1.0000    0.02770   0.11150   0.45870   Biso      1.000     C          -0.167799           
         C15       1.0000    0.05600   0.14960   0.65500   Biso      1.000     C          0.599295  
         C16       1.0000    0.34130   0.06000   0.67260   Biso      1.000     C          0.6105729999999999  
         C17       1.0000    0.26020   0.01570   0.28190   Biso      1.000     C          0.6168399999999999  
         C18       1.0000    0.98010   0.06900   0.26120   Biso      1.000     C          0.635047  
         C19       1.0000    0.61170   0.44000   0.89040   Biso      1.000     C          -0.097412           
         C20       1.0000    0.74220   0.43090   0.93130   Biso      1.000     C          -0.04508  
         C21       1.0000    0.78650   0.52310   0.96450   Biso      1.000     C          -0.180285           
         C22       1.0000    0.70450   0.62260   0.95960   Biso      1.000     C          0.002779  
         C23       1.0000    0.21350   0.47690   0.03550   Biso      1.000     C          -0.180279           
         C24       1.0000    0.25780   0.56910   0.06870   Biso      1.000     C          -0.04508  
         C25       1.0000    0.38830   0.56000   0.10960   Biso      1.000     C          -0.097412           
         C26       1.0000    0.48010   0.73880   0.93100   Biso      1.000     C          0.635012  
         C27       1.0000    0.01990   0.93100   0.73880   Biso      1.000     C          0.635047  
         C28       1.0000    0.73980   0.98430   0.71810   Biso      1.000     C          0.6168399999999999  
         C29       1.0000    0.65870   0.94000   0.32740   Biso      1.000     C          0.610574  
         C30       1.0000    0.94400   0.85040   0.34500   Biso      1.000     C          0.599295  
         C31       1.0000    0.97230   0.88850   0.54130   Biso      1.000     C          -0.16780599999999998          
         C32       1.0000    0.92800   0.92380   0.63160   Biso      1.000     C          -0.056964999999999995         
         C33       1.0000    0.79550   0.95960   0.62260   Biso      1.000     C          0.0027559999999999998         
         C34       1.0000    0.71350   0.96450   0.52310   Biso      1.000     C          -0.180291           
         C35       1.0000    0.75780   0.93130   0.43090   Biso      1.000     C          -0.045049           
         C36       1.0000    0.88830   0.89040   0.44000   Biso      1.000     C          -0.097427           
         C37       1.0000    0.57200   0.63160   0.92380   Biso      1.000     C          -0.05697000000000001          
         C38       1.0000    0.52770   0.54130   0.88850   Biso      1.000     C          -0.16781  
         C39       1.0000    0.55600   0.34500   0.85040   Biso      1.000     C          0.599268  
         C40       1.0000    0.76020   0.71810   0.98430   Biso      1.000     C          0.616826  
         Cu1       1.0000    0.50000   0.00000   0.00000   Biso      1.000     Cu          1.075877  
         Cu2       1.0000    0.00000   0.00000   0.00000   Biso      1.000     Cu          1.07587   
         H1        1.0000    0.12610   0.48280   0.00940   Biso      1.000     H          0.13053800000000002           
         H2        1.0000    0.55980   0.45260   0.13720   Biso      1.000     H          0.102278  
         H3        1.0000    0.37390   0.00940   0.48280   Biso      1.000     H          0.130546  
         H4        1.0000    0.94020   0.13720   0.45260   Biso      1.000     H          0.102268  
         H5        1.0000    0.87390   0.51720   0.99060   Biso      1.000     H          0.13053900000000002           
         H6        1.0000    0.44020   0.54740   0.86280   Biso      1.000     H          0.102278  
         H7        1.0000    0.62610   0.99060   0.51720   Biso      1.000     H          0.130546  
         H8        1.0000    0.05980   0.86280   0.54740   Biso      1.000     H          0.102269  
         Na1       1.0000    0.71190   0.68610   0.35090   Biso      1.000     Na          0.8614139999999999  
         Na2       1.0000    0.25000   0.67950   0.67950   Biso      1.000     Na          0.8255709999999999  
         Na3       1.0000    0.75000   0.32050   0.32050   Biso      1.000     Na          0.825564  
         Na4       1.0000    0.21190   0.64910   0.31390   Biso      1.000     Na          0.8614149999999999  
         Na5       1.0000    0.28810   0.31390   0.64910   Biso      1.000     Na          0.861417  
         Na6       1.0000    0.78810   0.35090   0.68610   Biso      1.000     Na          0.861418  
         O1        1.0000    0.93780   0.87807   0.99733   Biso      1.000     O          -0.6696409999999999           
         O2        1.0000    0.06220   0.12193   0.00267   Biso      1.000     O          -0.6696340000000001           
         O3        1.0000    0.18360   0.92187   0.01573   Biso      1.000     O          -0.640867           
         O4        1.0000    0.44840   0.35590   0.79010   Biso      1.000     O          -0.728853           
         O5        1.0000    0.62330   0.25670   0.88150   Biso      1.000     O          -0.494395           
         O6        1.0000    0.87480   0.27850   0.85550   Biso      1.000     O          -0.663471           
         O7        1.0000    0.89030   0.30070   0.03050   Biso      1.000     O          -0.446459           
         O8        1.0000    0.83920   0.72930   0.07150   Biso      1.000     O          -0.569642           
         O9        1.0000    0.72490   0.77573   0.91127   Biso      1.000     O          -0.525764           
         O10       1.0000    0.51110   0.80940   0.00440   Biso      1.000     O          -0.586012           
         O11       1.0000    0.37380   0.75140   0.86240   Biso      1.000     O          -0.6301260000000001           
         O12       1.0000    0.05160   0.79010   0.35590   Biso      1.000     O          -0.7288720000000001           
         O13       1.0000    0.68360   0.98427   0.07813   Biso      1.000     O          -0.640884           
         O14       1.0000    0.87380   0.13760   0.24860   Biso      1.000     O          -0.6301439999999999           
         O15       1.0000    0.87670   0.88150   0.25670   Biso      1.000     O          -0.4944   
         O16       1.0000    0.62520   0.85550   0.27850   Biso      1.000     O          -0.663479           
         O17       1.0000    0.60970   0.03050   0.30070   Biso      1.000     O          -0.446499           
         O18       1.0000    0.66080   0.07150   0.72930   Biso      1.000     O          -0.569654           
         O19       1.0000    0.77510   0.91127   0.77573   Biso      1.000     O          -0.525762           
         O20       1.0000    0.98890   0.00440   0.80940   Biso      1.000     O          -0.586033           
         O21       1.0000    0.12620   0.86240   0.75140   Biso      1.000     O          -0.630145           
         O22       1.0000    0.56220   0.99733   0.87807   Biso      1.000     O          -0.669632           
         O23       1.0000    0.01110   0.99560   0.19060   Biso      1.000     O          -0.586034           
         O24       1.0000    0.39030   0.96950   0.69930   Biso      1.000     O          -0.44650100000000004          
         O25       1.0000    0.33920   0.92850   0.27070   Biso      1.000     O          -0.569654           
         O26       1.0000    0.55160   0.64410   0.20990   Biso      1.000     O          -0.728853           
         O27       1.0000    0.37670   0.74330   0.11850   Biso      1.000     O          -0.494395           
         O28       1.0000    0.12520   0.72150   0.14450   Biso      1.000     O          -0.6634720000000001           
         O29       1.0000    0.22490   0.08873   0.22427   Biso      1.000     O          -0.5257609999999999           
         O30       1.0000    0.16080   0.27070   0.92850   Biso      1.000     O          -0.569643           
         O31       1.0000    0.27510   0.22427   0.08873   Biso      1.000     O          -0.525762           
         O32       1.0000    0.48890   0.19060   0.99560   Biso      1.000     O          -0.586014           
         O33       1.0000    0.10970   0.69930   0.96950   Biso      1.000     O          -0.44646199999999997          
         O34       1.0000    0.43780   0.00267   0.12193   Biso      1.000     O          -0.6696479999999999           
         O35       1.0000    0.31640   0.01573   0.92187   Biso      1.000     O          -0.6408739999999999           
         O36       1.0000    0.94840   0.20990   0.64410   Biso      1.000     O          -0.7288720000000001           
         O37       1.0000    0.12330   0.11850   0.74330   Biso      1.000     O          -0.4944   
         O38       1.0000    0.37480   0.14450   0.72150   Biso      1.000     O          -0.6634800000000001           
         O39       1.0000    0.62620   0.24860   0.13760   Biso      1.000     O          -0.630125           
         O40       1.0000    0.81640   0.07813   0.98427   Biso      1.000     O          -0.640865           
         Zn1       1.0000    0.75000   0.92445   0.92445   Biso      1.000     Zn          0.9662440000000001  
         Zn2       1.0000    0.46046   0.86093   0.16779   Biso      1.000     Zn          1.031177  
         Zn3       1.0000    0.03954   0.16779   0.86093   Biso      1.000     Zn          1.031167  
         Zn4       1.0000    0.53954   0.13907   0.83221   Biso      1.000     Zn          1.031174  
         Zn5       1.0000    0.96046   0.83221   0.13907   Biso      1.000     Zn          1.0311700000000001  
         Zn6       1.0000    0.25000   0.88753   0.88753   Biso      1.000     Zn          0.958241  
         Zn7       1.0000    0.25000   0.07555   0.07555   Biso      1.000     Zn          0.966241  
         Zn8       1.0000    0.75000   0.11247   0.11247   Biso      1.000     Zn          0.95824 