
##########################################################################
#               Crystallographic Information Format file
#               Produced by PyCifRW module
#
#  This is a CIF file.  CIF has been adopted by the International
#  Union of Crystallography as the standard for data archiving and
#  transmission.
#
#  For information on this file format, follow the CIF links at
#  http://www.iucr.org
##########################################################################

data_image0

_cell_length_a                          12.2042
_cell_length_b                          14.3786
_cell_length_c                          20.3859
_cell_angle_alpha                       90
_cell_angle_beta                        90
_cell_angle_gamma                       90
_symmetry_space_group_name_H-M          'P 1'
_symmetry_int_tables_number             1
loop_
  _symmetry_equiv_pos_as_xyz
         'x, y, z' 
loop_
  _atom_site_label
  _atom_site_occupancy
  _atom_site_fract_x
  _atom_site_fract_y
  _atom_site_fract_z
  _atom_site_thermal_displace_type
  _atom_site_B_iso_or_equiv
  _atom_site_type_symbol
  _atom_site_charge
         C1        1.0000    0.47580   0.29821   0.45200   Biso      1.000     C          -0.070854           
         C2        1.0000    0.22210   0.28366   0.12593   Biso      1.000     C          -0.026047000000000004         
         C3        1.0000    0.23350   0.78680   0.87571   Biso      1.000     C          -0.005018           
         C4        1.0000    0.55620   0.02188   0.85683   Biso      1.000     C          -0.045597000000000006         
         C5        1.0000    0.97580   0.20179   0.54800   Biso      1.000     C          -0.070853           
         C6        1.0000    0.98110   0.26862   0.21775   Biso      1.000     C          -0.08033  
         C7        1.0000    0.44380   0.97812   0.14317   Biso      1.000     C          -0.045597000000000006         
         C8        1.0000    0.26650   0.21320   0.37571   Biso      1.000     C          -0.005019           
         C9        1.0000    0.94380   0.97812   0.35683   Biso      1.000     C          -0.045598           
         C10       1.0000    0.76650   0.21320   0.12429   Biso      1.000     C          -0.005019           
         C11       1.0000    0.72210   0.28366   0.37407   Biso      1.000     C          -0.026047000000000004         
         C12       1.0000    0.27790   0.71634   0.62593   Biso      1.000     C          -0.026047000000000004         
         C13       1.0000    0.52420   0.70179   0.54800   Biso      1.000     C          -0.070853           
         C14       1.0000    0.51890   0.76862   0.21775   Biso      1.000     C          -0.080329           
         C15       1.0000    0.48110   0.26862   0.28225   Biso      1.000     C          -0.08033  
         C16       1.0000    0.23350   0.71320   0.37571   Biso      1.000     C          -0.005019           
         C17       1.0000    0.55620   0.47812   0.35683   Biso      1.000     C          -0.045597000000000006         
         C18       1.0000    0.77790   0.78366   0.37407   Biso      1.000     C          -0.026047000000000004         
         C19       1.0000    0.47580   0.20179   0.95200   Biso      1.000     C          -0.070853           
         C20       1.0000    0.97580   0.29821   0.04800   Biso      1.000     C          -0.070854           
         C21       1.0000    0.98110   0.23138   0.71775   Biso      1.000     C          -0.080329           
         C22       1.0000    0.72210   0.21634   0.87407   Biso      1.000     C          -0.026047000000000004         
         C23       1.0000    0.26650   0.28680   0.87571   Biso      1.000     C          -0.005019           
         C24       1.0000    0.94380   0.52188   0.85683   Biso      1.000     C          -0.045599           
         C25       1.0000    0.51890   0.73138   0.71775   Biso      1.000     C          -0.080329           
         C26       1.0000    0.02420   0.79821   0.45200   Biso      1.000     C          -0.070854           
         C27       1.0000    0.77790   0.71634   0.87407   Biso      1.000     C          -0.026049           
         C28       1.0000    0.73350   0.78680   0.62429   Biso      1.000     C          -0.005018           
         C29       1.0000    0.02420   0.70179   0.95200   Biso      1.000     C          -0.070855           
         C30       1.0000    0.52420   0.79821   0.04800   Biso      1.000     C          -0.070852           
         C31       1.0000    0.01890   0.76862   0.28225   Biso      1.000     C          -0.08033  
         C32       1.0000    0.73350   0.71320   0.12429   Biso      1.000     C          -0.005019           
         C33       1.0000    0.05620   0.47812   0.14317   Biso      1.000     C          -0.045598           
         C34       1.0000    0.05620   0.02188   0.64317   Biso      1.000     C          -0.045598           
         C35       1.0000    0.44380   0.52188   0.64317   Biso      1.000     C          -0.045598           
         C36       1.0000    0.22210   0.21634   0.62593   Biso      1.000     C          -0.026047000000000004         
         C37       1.0000    0.27790   0.78366   0.12593   Biso      1.000     C          -0.026047000000000004         
         C38       1.0000    0.48110   0.23138   0.78225   Biso      1.000     C          -0.080329           
         C39       1.0000    0.76650   0.28680   0.62429   Biso      1.000     C          -0.005018           
         C40       1.0000    0.01890   0.73138   0.78225   Biso      1.000     C          -0.08033  
         Cd1       1.0000    0.51245   0.71067   0.37909   Biso      1.000     Cd          0.9662229999999999  
         Cd2       1.0000    0.48755   0.28933   0.62091   Biso      1.000     Cd          0.9662229999999999  
         Cd3       1.0000    0.01245   0.71067   0.12091   Biso      1.000     Cd          0.966224  
         Cd4       1.0000    0.51245   0.78933   0.87909   Biso      1.000     Cd          0.9662229999999999  
         Cd5       1.0000    0.98755   0.28933   0.87909   Biso      1.000     Cd          0.9662229999999999  
         Cd6       1.0000    0.48755   0.21067   0.12091   Biso      1.000     Cd          0.966224  
         Cd7       1.0000    0.98755   0.21067   0.37909   Biso      1.000     Cd          0.9662229999999999  
         Cd8       1.0000    0.01245   0.78933   0.62091   Biso      1.000     Cd          0.966224  
         Cu1       1.0000    0.08541   0.74326   0.86880   Biso      1.000     Cu          0.363066  
         Cu2       1.0000    0.41459   0.24326   0.86880   Biso      1.000     Cu          0.36306900000000003           
         Cu3       1.0000    0.08542   0.15265   0.63826   Biso      1.000     Cu          0.369746  
         Cu4       1.0000    0.58542   0.34735   0.36174   Biso      1.000     Cu          0.369746  
         Cu5       1.0000    0.41458   0.65265   0.63826   Biso      1.000     Cu          0.369747  
         Cu6       1.0000    0.58541   0.75674   0.13120   Biso      1.000     Cu          0.363068  
         Cu7       1.0000    0.91458   0.65265   0.86174   Biso      1.000     Cu          0.36975   
         Cu8       1.0000    0.91458   0.84735   0.36174   Biso      1.000     Cu          0.369745  
         Cu9       1.0000    0.91459   0.25674   0.13120   Biso      1.000     Cu          0.36306900000000003           
         Cu10      1.0000    0.41459   0.25674   0.36880   Biso      1.000     Cu          0.363066  
         Cu11      1.0000    0.41458   0.84735   0.13826   Biso      1.000     Cu          0.369744  
         Cu12      1.0000    0.08542   0.34735   0.13826   Biso      1.000     Cu          0.369747  
         Cu13      1.0000    0.91459   0.24326   0.63120   Biso      1.000     Cu          0.363066  
         Cu14      1.0000    0.58542   0.15265   0.86174   Biso      1.000     Cu          0.369743  
         Cu15      1.0000    0.08541   0.75674   0.36880   Biso      1.000     Cu          0.36306700000000003           
         Cu16      1.0000    0.58541   0.74326   0.63120   Biso      1.000     Cu          0.363066  
         N1        1.0000    0.45990   0.05658   0.14168   Biso      1.000     N          -0.295442           
         N2        1.0000    0.30357   0.24686   0.11668   Biso      1.000     N          -0.30761  
         N3        1.0000    0.82450   0.80270   0.61808   Biso      1.000     N          -0.315918           
         N4        1.0000    0.17550   0.30270   0.88192   Biso      1.000     N          -0.315917           
         N5        1.0000    0.67550   0.19730   0.11808   Biso      1.000     N          -0.315918           
         N6        1.0000    0.48830   0.18978   0.00682   Biso      1.000     N          -0.273954           
         N7        1.0000    0.49640   0.25940   0.22760   Biso      1.000     N          -0.27826599999999996          
         N8        1.0000    0.04010   0.94342   0.64168   Biso      1.000     N          -0.295442           
         N9        1.0000    0.01170   0.81022   0.50682   Biso      1.000     N          -0.273954           
         N10       1.0000    0.80357   0.25314   0.88332   Biso      1.000     N          -0.30761  
         N11       1.0000    0.00360   0.74060   0.72760   Biso      1.000     N          -0.27826599999999996          
         N12       1.0000    0.80357   0.24686   0.38332   Biso      1.000     N          -0.30761  
         N13       1.0000    0.95990   0.44342   0.85832   Biso      1.000     N          -0.29544000000000004          
         N14       1.0000    0.49640   0.24060   0.72760   Biso      1.000     N          -0.27826599999999996          
         N15       1.0000    0.45990   0.44342   0.64168   Biso      1.000     N          -0.295441           
         N16       1.0000    0.48830   0.31022   0.50682   Biso      1.000     N          -0.273954           
         N17       1.0000    0.67550   0.30270   0.61808   Biso      1.000     N          -0.315917           
         N18       1.0000    0.30357   0.25314   0.61668   Biso      1.000     N          -0.307611           
         N19       1.0000    0.00360   0.75940   0.22760   Biso      1.000     N          -0.27826599999999996          
         N20       1.0000    0.04010   0.55658   0.14168   Biso      1.000     N          -0.295441           
         N21       1.0000    0.01170   0.68978   0.00682   Biso      1.000     N          -0.273954           
         N22       1.0000    0.82450   0.69730   0.11808   Biso      1.000     N          -0.315917           
         N23       1.0000    0.19643   0.74686   0.11668   Biso      1.000     N          -0.307611           
         N24       1.0000    0.50360   0.74060   0.77240   Biso      1.000     N          -0.278267           
         N25       1.0000    0.54010   0.94342   0.85832   Biso      1.000     N          -0.295441           
         N26       1.0000    0.51170   0.81022   0.99318   Biso      1.000     N          -0.273955           
         N27       1.0000    0.32450   0.80270   0.88192   Biso      1.000     N          -0.315917           
         N28       1.0000    0.69643   0.75314   0.88332   Biso      1.000     N          -0.307609           
         N29       1.0000    0.99640   0.25940   0.27240   Biso      1.000     N          -0.278267           
         N30       1.0000    0.95990   0.05658   0.35832   Biso      1.000     N          -0.295441           
         N31       1.0000    0.98830   0.18978   0.49318   Biso      1.000     N          -0.273955           
         N32       1.0000    0.17550   0.19730   0.38192   Biso      1.000     N          -0.315917           
         N33       1.0000    0.50360   0.75940   0.27240   Biso      1.000     N          -0.278267           
         N34       1.0000    0.54010   0.55658   0.35832   Biso      1.000     N          -0.295441           
         N35       1.0000    0.51170   0.68978   0.49318   Biso      1.000     N          -0.273955           
         N36       1.0000    0.32450   0.69730   0.38192   Biso      1.000     N          -0.315917           
         N37       1.0000    0.69643   0.74686   0.38332   Biso      1.000     N          -0.30761  
         N38       1.0000    0.99640   0.24060   0.77240   Biso      1.000     N          -0.278267           
         N39       1.0000    0.98830   0.31022   0.99318   Biso      1.000     N          -0.273955           
         N40       1.0000    0.19643   0.75314   0.61668   Biso      1.000     N          -0.30761 