
##########################################################################
#               Crystallographic Information Format file
#               Produced by PyCifRW module
#
#  This is a CIF file.  CIF has been adopted by the International
#  Union of Crystallography as the standard for data archiving and
#  transmission.
#
#  For information on this file format, follow the CIF links at
#  http://www.iucr.org
##########################################################################

data_image0

_cell_length_a                          8.3259
_cell_length_b                          22.773
_cell_length_c                          20.105
_cell_angle_alpha                       90
_cell_angle_beta                        93.7
_cell_angle_gamma                       90
_symmetry_space_group_name_H-M          'P 1'
_symmetry_int_tables_number             1
loop_
  _symmetry_equiv_pos_as_xyz
         'x, y, z' 
loop_
  _atom_site_label
  _atom_site_occupancy
  _atom_site_fract_x
  _atom_site_fract_y
  _atom_site_fract_z
  _atom_site_thermal_displace_type
  _atom_site_B_iso_or_equiv
  _atom_site_type_symbol
  _atom_site_charge
         C1        1.0000    0.69200   0.44890   0.56560   Biso      1.000     C          0.575896  
         C2        1.0000    0.81270   0.40660   0.37290   Biso      1.000     C          -0.255214           
         C3        1.0000    0.71400   0.41500   0.31530   Biso      1.000     C          0.30446   
         C4        1.0000    0.61930   0.36810   0.20730   Biso      1.000     C          0.487889  
         C5        1.0000    0.52460   0.25180   0.08000   Biso      1.000     C          -0.09713  
         C6        1.0000    0.19230   0.17640   0.18970   Biso      1.000     C          -0.135847           
         C7        1.0000    0.52240   0.30310   0.11720   Biso      1.000     C          -0.108941           
         C8        1.0000    0.63370   0.31460   0.16770   Biso      1.000     C          -0.025668           
         C9        1.0000    0.74440   0.27240   0.17940   Biso      1.000     C          -0.13635  
         C10       1.0000    0.34130   0.17220   0.22160   Biso      1.000     C          -0.0303   
         C11       1.0000    0.75240   0.22450   0.13900   Biso      1.000     C          -0.09865  
         C12       1.0000    0.64360   0.21300   0.08880   Biso      1.000     C          0.009512  
         C13       1.0000    0.64810   0.15670   0.04760   Biso      1.000     C          0.561642  
         C14       1.0000    0.44670   0.12840   0.20420   Biso      1.000     C          -0.105171           
         C15       1.0000    0.76860   0.60210   0.63000   Biso      1.000     C          0.107543  
         C16       1.0000    0.76660   0.64260   0.68020   Biso      1.000     C          -0.263162           
         C17       1.0000    0.66260   0.69080   0.67380   Biso      1.000     C          0.304026  
         C18       1.0000    0.40070   0.08920   0.15230   Biso      1.000     C          -0.093342           
         C19       1.0000    0.55600   0.69310   0.61670   Biso      1.000     C          -0.241997           
         C20       1.0000    0.56640   0.65000   0.56930   Biso      1.000     C          0.118002  
         C21       1.0000    0.14360   0.28700   0.58880   Biso      1.000     C          0.009462  
         C22       1.0000    0.39800   0.21200   0.27790   Biso      1.000     C          0.505021  
         C23       1.0000    0.59930   0.91080   0.84770   Biso      1.000     C          -0.093336           
         C24       1.0000    0.43360   0.35000   0.43070   Biso      1.000     C          0.117996  
         C25       1.0000    0.55330   0.87160   0.79580   Biso      1.000     C          -0.105172           
         C26       1.0000    0.65870   0.82780   0.77840   Biso      1.000     C          -0.03031  
         C27       1.0000    0.14650   0.13810   0.13780   Biso      1.000     C          -0.105945           
         C28       1.0000    0.82140   0.44850   0.42270   Biso      1.000     C          0.12221   
         C29       1.0000    0.24870   0.09380   0.11990   Biso      1.000     C          -0.005318           
         C30       1.0000    0.64660   0.50880   0.35960   Biso      1.000     C          0.116495  
         C31       1.0000    0.14810   0.34330   0.54760   Biso      1.000     C          0.561639  
         C32       1.0000    0.26860   0.89790   0.13000   Biso      1.000     C          0.107536  
         C33       1.0000    0.24440   0.22760   0.67940   Biso      1.000     C          -0.136389           
         C34       1.0000    0.26660   0.85740   0.18020   Biso      1.000     C          -0.263169           
         C35       1.0000    0.16260   0.80920   0.17380   Biso      1.000     C          0.304036  
         C36       1.0000    0.05600   0.80690   0.11670   Biso      1.000     C          -0.242002           
         C37       1.0000    0.13370   0.18540   0.66770   Biso      1.000     C          -0.02566  
         C38       1.0000    0.06640   0.85000   0.06930   Biso      1.000     C          0.117995  
         C39       1.0000    0.10200   0.71200   0.22210   Biso      1.000     C          0.50502   
         C40       1.0000    0.02240   0.19690   0.61720   Biso      1.000     C          -0.108944           
         C41       1.0000    0.09930   0.58920   0.34770   Biso      1.000     C          -0.093347           
         C42       1.0000    0.05330   0.62840   0.29580   Biso      1.000     C          -0.105171           
         C43       1.0000    0.80770   0.82360   0.81030   Biso      1.000     C          -0.135842           
         C44       1.0000    0.15870   0.67220   0.27840   Biso      1.000     C          -0.030317           
         C45       1.0000    0.30770   0.67640   0.31030   Biso      1.000     C          -0.13585  
         C46       1.0000    0.35350   0.63810   0.36220   Biso      1.000     C          -0.105947           
         C47       1.0000    0.25130   0.59380   0.38010   Biso      1.000     C          -0.005318           
         C48       1.0000    0.30800   0.55110   0.43440   Biso      1.000     C          0.575904  
         C49       1.0000    0.11930   0.13190   0.70730   Biso      1.000     C          0.487893  
         C50       1.0000    0.21400   0.08500   0.81530   Biso      1.000     C          0.304467  
         C51       1.0000    0.31270   0.09340   0.87290   Biso      1.000     C          -0.255213           
         C52       1.0000    0.32140   0.05150   0.92270   Biso      1.000     C          0.122205  
         C53       1.0000    0.14660   0.99120   0.85960   Biso      1.000     C          0.116499  
         C54       1.0000    0.13140   0.03100   0.80830   Biso      1.000     C          -0.237081           
         C55       1.0000    0.63140   0.46900   0.30830   Biso      1.000     C          -0.237078           
         C56       1.0000    0.19200   0.05110   0.06560   Biso      1.000     C          0.575915  
         C57       1.0000    0.02460   0.24820   0.58000   Biso      1.000     C          -0.097097           
         C58       1.0000    0.44400   0.30690   0.38330   Biso      1.000     C          -0.242    
         C59       1.0000    0.60200   0.78800   0.72210   Biso      1.000     C          0.50502   
         C60       1.0000    0.75130   0.90620   0.88010   Biso      1.000     C          -0.005319           
         C61       1.0000    0.38070   0.63190   0.79270   Biso      1.000     C          0.487885  
         C62       1.0000    0.97760   0.80310   0.38280   Biso      1.000     C          -0.108949           
         C63       1.0000    0.86630   0.81460   0.33230   Biso      1.000     C          -0.025679           
         C64       1.0000    0.28600   0.58500   0.68470   Biso      1.000     C          0.304455  
         C65       1.0000    0.75560   0.77240   0.32060   Biso      1.000     C          -0.136354           
         C66       1.0000    0.85350   0.86190   0.86220   Biso      1.000     C          -0.105937           
         C67       1.0000    0.18730   0.59340   0.62710   Biso      1.000     C          -0.25522  
         C68       1.0000    0.74760   0.72450   0.36100   Biso      1.000     C          -0.098649           
         C69       1.0000    0.85640   0.71300   0.41120   Biso      1.000     C          0.009487  
         C70       1.0000    0.85190   0.65670   0.45240   Biso      1.000     C          0.561632  
         C71       1.0000    0.73140   0.10210   0.87000   Biso      1.000     C          0.107536  
         C72       1.0000    0.17860   0.55150   0.57730   Biso      1.000     C          0.122204  
         C73       1.0000    0.73340   0.14260   0.81980   Biso      1.000     C          -0.263167           
         C74       1.0000    0.83740   0.19080   0.82620   Biso      1.000     C          0.304031  
         C75       1.0000    0.94400   0.19310   0.88330   Biso      1.000     C          -0.242004           
         C76       1.0000    0.35340   0.49120   0.64040   Biso      1.000     C          0.116493  
         C77       1.0000    0.93360   0.15000   0.93070   Biso      1.000     C          0.117999  
         C78       1.0000    0.89800   0.28800   0.77790   Biso      1.000     C          0.505026  
         C79       1.0000    0.90070   0.41080   0.65230   Biso      1.000     C          -0.093346           
         C80       1.0000    0.36860   0.53100   0.69170   Biso      1.000     C          -0.237084           
         C81       1.0000    0.94670   0.37160   0.70420   Biso      1.000     C          -0.105164           
         C82       1.0000    0.84130   0.32780   0.72160   Biso      1.000     C          -0.030319           
         C83       1.0000    0.69230   0.32360   0.68970   Biso      1.000     C          -0.135845           
         C84       1.0000    0.64650   0.36190   0.63780   Biso      1.000     C          -0.105942           
         C85       1.0000    0.74870   0.40620   0.61990   Biso      1.000     C          -0.005318           
         C86       1.0000    0.97540   0.75180   0.42000   Biso      1.000     C          -0.097099           
         C87       1.0000    0.88070   0.86810   0.29270   Biso      1.000     C          0.487891  
         C88       1.0000    0.25240   0.27550   0.63900   Biso      1.000     C          -0.098624           
         C89       1.0000    0.36630   0.68540   0.83230   Biso      1.000     C          -0.025684           
         C90       1.0000    0.25560   0.72760   0.82060   Biso      1.000     C          -0.136353           
         C91       1.0000    0.33740   0.30920   0.32620   Biso      1.000     C          0.30402   
         C92       1.0000    0.78600   0.91500   0.18470   Biso      1.000     C          0.304469  
         C93       1.0000    0.35190   0.84330   0.95240   Biso      1.000     C          0.56165   
         C94       1.0000    0.24760   0.77550   0.86100   Biso      1.000     C          -0.098652           
         C95       1.0000    0.86860   0.96900   0.19170   Biso      1.000     C          -0.237093           
         C96       1.0000    0.35640   0.78700   0.91120   Biso      1.000     C          0.009491  
         C97       1.0000    0.23340   0.35740   0.31980   Biso      1.000     C          -0.263166           
         C98       1.0000    0.85340   0.00880   0.14040   Biso      1.000     C          0.116513  
         C99       1.0000    0.80800   0.94890   0.93440   Biso      1.000     C          0.575906  
         C100      1.0000    0.67860   0.94850   0.07730   Biso      1.000     C          0.122207  
         C101      1.0000    0.47540   0.74820   0.92000   Biso      1.000     C          -0.097108           
         C102      1.0000    0.68730   0.90660   0.12710   Biso      1.000     C          -0.255216           
         C103      1.0000    0.23140   0.39790   0.37000   Biso      1.000     C          0.107535  
         C104      1.0000    0.47760   0.69690   0.88280   Biso      1.000     C          -0.108938           
         Cu1       1.0000    0.21295   0.94572   0.99448   Biso      1.000     Cu          0.811284  
         Cu2       1.0000    0.78705   0.05428   0.00552   Biso      1.000     Cu          0.81131   
         Cu3       1.0000    0.71295   0.55428   0.49448   Biso      1.000     Cu          0.811225  
         Cu4       1.0000    0.28705   0.44572   0.50552   Biso      1.000     Cu          0.811253  
         H1        1.0000    0.41180   0.45550   0.64520   Biso      1.000     H          0.098321  
         H2        1.0000    0.04420   0.14240   0.11450   Biso      1.000     H          0.117647  
         H3        1.0000    0.31930   0.22400   0.71690   Biso      1.000     H          0.091567  
         H4        1.0000    0.43350   0.52240   0.73110   Biso      1.000     H          0.148873  
         H5        1.0000    0.52120   0.27630   0.38900   Biso      1.000     H          0.148781  
         H6        1.0000    0.33970   0.30200   0.64680   Biso      1.000     H          0.10631   
         H7        1.0000    0.50790   0.34850   0.46850   Biso      1.000     H          0.1055    
         H8        1.0000    0.16420   0.36200   0.28070   Biso      1.000     H          0.136963  
         H9        1.0000    0.94010   0.16880   0.60680   Biso      1.000     H          0.111019  
         H10       1.0000    0.54960   0.12500   0.22720   Biso      1.000     H          0.119688  
         H11       1.0000    0.16000   0.43030   0.36440   Biso      1.000     H          0.096043  
         H12       1.0000    0.11370   0.55880   0.53750   Biso      1.000     H          0.103785  
         H13       1.0000    0.93910   0.25570   0.54750   Biso      1.000     H          0.115585  
         H14       1.0000    0.16030   0.80200   0.85320   Biso      1.000     H          0.106314  
         H15       1.0000    0.12510   0.62830   0.62190   Biso      1.000     H          0.140481  
         H16       1.0000    0.37490   0.12830   0.87810   Biso      1.000     H          0.14049   
         H17       1.0000    0.18070   0.72400   0.78310   Biso      1.000     H          0.091573  
         H18       1.0000    0.38630   0.05880   0.96250   Biso      1.000     H          0.103777  
         H19       1.0000    0.08820   0.95550   0.85480   Biso      1.000     H          0.098317  
         H20       1.0000    0.06650   0.02240   0.76890   Biso      1.000     H          0.148875  
         H21       1.0000    0.23000   0.77900   0.25980   Biso      1.000     H          0.296998  
         H22       1.0000    0.11930   0.20560   0.20290   Biso      1.000     H          0.101049  
         H23       1.0000    0.55990   0.66880   0.89320   Biso      1.000     H          0.110989  
         H24       1.0000    0.56090   0.75570   0.95250   Biso      1.000     H          0.115597  
         H25       1.0000    0.47330   0.05970   0.13960   Biso      1.000     H          0.118696  
         H26       1.0000    0.26950   0.16000   0.77710   Biso      1.000     H          0.290778  
         H27       1.0000    0.76950   0.34000   0.27710   Biso      1.000     H          0.29078   
         H28       1.0000    0.33580   0.86200   0.21930   Biso      1.000     H          0.136976  
         H29       1.0000    0.44010   0.33120   0.10680   Biso      1.000     H          0.111017  
         H30       1.0000    0.81930   0.27600   0.21690   Biso      1.000     H          0.091572  
         H31       1.0000    0.83970   0.19800   0.14680   Biso      1.000     H          0.106312  
         H32       1.0000    0.84000   0.56970   0.63560   Biso      1.000     H          0.096055  
         H33       1.0000    0.83580   0.63800   0.71930   Biso      1.000     H          0.136976  
         H34       1.0000    0.47880   0.72370   0.61100   Biso      1.000     H          0.14879   
         H35       1.0000    0.49210   0.65150   0.53150   Biso      1.000     H          0.10551   
         H36       1.0000    0.52670   0.94030   0.86040   Biso      1.000     H          0.1187    
         H37       1.0000    0.34000   0.93030   0.13560   Biso      1.000     H          0.096046  
         H38       1.0000    0.88070   0.79440   0.79710   Biso      1.000     H          0.10105   
         H39       1.0000    0.95580   0.85760   0.88550   Biso      1.000     H          0.117644  
         H40       1.0000    0.73050   0.84000   0.22290   Biso      1.000     H          0.290779  
         H41       1.0000    0.77000   0.22100   0.74020   Biso      1.000     H          0.296998  
         H42       1.0000    0.93350   0.97760   0.23110   Biso      1.000     H          0.148884  
         H43       1.0000    0.91180   0.04450   0.14520   Biso      1.000     H          0.098317  
         H44       1.0000    0.61370   0.94120   0.03750   Biso      1.000     H          0.103774  
         H45       1.0000    0.62510   0.87170   0.12190   Biso      1.000     H          0.140488  
         H46       1.0000    0.06090   0.74430   0.45250   Biso      1.000     H          0.115591  
         H47       1.0000    0.05990   0.83120   0.39320   Biso      1.000     H          0.111001  
         H48       1.0000    0.68070   0.77600   0.28310   Biso      1.000     H          0.091569  
         H49       1.0000    0.66030   0.69800   0.35320   Biso      1.000     H          0.106317  
         H50       1.0000    0.66000   0.06970   0.86440   Biso      1.000     H          0.096039  
         H51       1.0000    0.66420   0.13800   0.78070   Biso      1.000     H          0.13697   
         H52       1.0000    0.02120   0.22370   0.88900   Biso      1.000     H          0.14879   
         H53       1.0000    0.00790   0.15150   0.96850   Biso      1.000     H          0.105499  
         H54       1.0000    0.97330   0.44030   0.63960   Biso      1.000     H          0.118702  
         H55       1.0000    0.04960   0.37500   0.72720   Biso      1.000     H          0.119683  
         H56       1.0000    0.61930   0.29440   0.70290   Biso      1.000     H          0.101047  
         H57       1.0000    0.54420   0.35760   0.61450   Biso      1.000     H          0.117651  
         H58       1.0000    0.43910   0.24430   0.04750   Biso      1.000     H          0.115597  
         H59       1.0000    0.87490   0.37170   0.37810   Biso      1.000     H          0.140486  
         H60       1.0000    0.45040   0.87500   0.77280   Biso      1.000     H          0.11969   
         H61       1.0000    0.58820   0.54450   0.35480   Biso      1.000     H          0.098324  
         H62       1.0000    0.97880   0.77630   0.11100   Biso      1.000     H          0.148794  
         H63       1.0000    0.99210   0.84850   0.03150   Biso      1.000     H          0.105507  
         H64       1.0000    0.02670   0.55970   0.36040   Biso      1.000     H          0.118704  
         H65       1.0000    0.95040   0.62500   0.27280   Biso      1.000     H          0.119687  
         H66       1.0000    0.38070   0.70560   0.29710   Biso      1.000     H          0.101045  
         H67       1.0000    0.45580   0.64240   0.38550   Biso      1.000     H          0.11765   
         H68       1.0000    0.27000   0.27900   0.24020   Biso      1.000     H          0.296994  
         H69       1.0000    0.73000   0.72100   0.75980   Biso      1.000     H          0.297001  
         H70       1.0000    0.88630   0.44120   0.46250   Biso      1.000     H          0.103787  
         H71       1.0000    0.23050   0.66000   0.72290   Biso      1.000     H          0.290774  
         H72       1.0000    0.56650   0.47760   0.26890   Biso      1.000     H          0.148874  
         N1        1.0000    0.23860   0.99962   0.91610   Biso      1.000     N          -0.244019           
         N2        1.0000    0.29260   0.62950   0.73230   Biso      1.000     N          -0.421284           
         N3        1.0000    0.26140   0.49962   0.58390   Biso      1.000     N          -0.243987           
         N4        1.0000    0.32840   0.26670   0.27580   Biso      1.000     N          -0.432948           
         N5        1.0000    0.32620   0.39420   0.42740   Biso      1.000     N          -0.226307           
         N6        1.0000    0.67380   0.60580   0.57260   Biso      1.000     N          -0.226297           
         N7        1.0000    0.67160   0.73330   0.72420   Biso      1.000     N          -0.432948           
         N8        1.0000    0.20740   0.12950   0.76770   Biso      1.000     N          -0.42128  
         N9        1.0000    0.73860   0.50038   0.41610   Biso      1.000     N          -0.243982           
         N10       1.0000    0.82620   0.10580   0.92740   Biso      1.000     N          -0.226369           
         N11       1.0000    0.70740   0.37050   0.26770   Biso      1.000     N          -0.421282           
         N12       1.0000    0.76140   0.00038   0.08390   Biso      1.000     N          -0.244021           
         N13       1.0000    0.79260   0.87050   0.23230   Biso      1.000     N          -0.421285           
         N14       1.0000    0.17160   0.76670   0.22420   Biso      1.000     N          -0.43295  
         N15       1.0000    0.17380   0.89420   0.07260   Biso      1.000     N          -0.226358           
         N16       1.0000    0.82840   0.23330   0.77580   Biso      1.000     N          -0.432946           
         O1        1.0000    0.49490   0.19680   0.32180   Biso      1.000     O          -0.458493           
         O2        1.0000    0.46450   0.59040   0.81270   Biso      1.000     O          -0.465865           
         O3        1.0000    0.45810   0.85270   0.99580   Biso      1.000     O          -0.565953           
         O4        1.0000    0.23140   0.87651   0.93695   Biso      1.000     O          -0.570548           
         O5        1.0000    0.06420   0.06078   0.03291   Biso      1.000     O          -0.58822  
         O6        1.0000    0.28440   0.00715   0.05803   Biso      1.000     O          -0.558277           
         O7        1.0000    0.99490   0.30320   0.82180   Biso      1.000     O          -0.458493           
         O8        1.0000    0.96450   0.90960   0.31270   Biso      1.000     O          -0.465863           
         O9        1.0000    0.95810   0.64730   0.49580   Biso      1.000     O          -0.565952           
         O10       1.0000    0.73140   0.62349   0.43695   Biso      1.000     O          -0.570555           
         O11       1.0000    0.56420   0.43922   0.53291   Biso      1.000     O          -0.588208           
         O12       1.0000    0.03550   0.09040   0.68730   Biso      1.000     O          -0.465874           
         O13       1.0000    0.04190   0.35270   0.50420   Biso      1.000     O          -0.565967           
         O14       1.0000    0.26860   0.37651   0.56305   Biso      1.000     O          -0.570579           
         O15       1.0000    0.43580   0.56078   0.46709   Biso      1.000     O          -0.588217           
         O16       1.0000    0.78440   0.49285   0.55803   Biso      1.000     O          -0.558272           
         O17       1.0000    0.53550   0.40960   0.18730   Biso      1.000     O          -0.46586  
         O18       1.0000    0.54190   0.14730   0.00420   Biso      1.000     O          -0.565949           
         O19       1.0000    0.76860   0.12349   0.06305   Biso      1.000     O          -0.570548           
         O20       1.0000    0.93580   0.93922   0.96709   Biso      1.000     O          -0.588217           
         O21       1.0000    0.71560   0.99285   0.94197   Biso      1.000     O          -0.558262           
         O22       1.0000    0.21560   0.50715   0.44197   Biso      1.000     O          -0.558292           
         O23       1.0000    0.00510   0.69680   0.17820   Biso      1.000     O          -0.458509           
         O24       1.0000    0.50510   0.80320   0.67820   Biso      1.000     O          -0.458496 