
##########################################################################
#               Crystallographic Information Format file
#               Produced by PyCifRW module
#
#  This is a CIF file.  CIF has been adopted by the International
#  Union of Crystallography as the standard for data archiving and
#  transmission.
#
#  For information on this file format, follow the CIF links at
#  http://www.iucr.org
##########################################################################

data_image0

_cell_length_a                          13.4027
_cell_length_b                          13.4027
_cell_length_c                          14.669
_cell_angle_alpha                       90
_cell_angle_beta                        90
_cell_angle_gamma                       120
_symmetry_space_group_name_H-M          'P 1'
_symmetry_int_tables_number             1
loop_
  _symmetry_equiv_pos_as_xyz
         'x, y, z' 
loop_
  _atom_site_label
  _atom_site_occupancy
  _atom_site_fract_x
  _atom_site_fract_y
  _atom_site_fract_z
  _atom_site_thermal_displace_type
  _atom_site_B_iso_or_equiv
  _atom_site_type_symbol
  _atom_site_charge
         C1        1.0000    0.44700   0.11420   0.36240   Biso      1.000     C          -0.244043           
         C2        1.0000    0.90180   0.64790   0.00960   Biso      1.000     C          -0.230767           
         C3        1.0000    0.87740   0.43790   0.34280   Biso      1.000     C          0.685204  
         C4        1.0000    0.88580   0.33280   0.36240   Biso      1.000     C          -0.244045           
         C5        1.0000    0.90180   0.25390   0.50960   Biso      1.000     C          -0.230766           
         C6        1.0000    0.81820   0.27130   0.56780   Biso      1.000     C          0.650565  
         C7        1.0000    0.56050   0.12260   0.34280   Biso      1.000     C          0.685207  
         C8        1.0000    0.35210   0.09820   0.50960   Biso      1.000     C          -0.230767           
         C9        1.0000    0.45310   0.18180   0.56780   Biso      1.000     C          0.650563  
         C10       1.0000    0.56210   0.43950   0.34280   Biso      1.000     C          0.685205  
         C11       1.0000    0.66720   0.55300   0.36240   Biso      1.000     C          -0.244049           
         C12       1.0000    0.74610   0.64790   0.50960   Biso      1.000     C          -0.230767           
         C13       1.0000    0.88580   0.55300   0.86240   Biso      1.000     C          -0.244049           
         C14       1.0000    0.72870   0.54690   0.56780   Biso      1.000     C          0.650567  
         C15       1.0000    0.55300   0.66720   0.13760   Biso      1.000     C          -0.244046           
         C16       1.0000    0.64790   0.74610   0.99040   Biso      1.000     C          -0.230766           
         C17       1.0000    0.54690   0.72870   0.93220   Biso      1.000     C          0.650565  
         C18       1.0000    0.43790   0.87740   0.15720   Biso      1.000     C          0.685207  
         C19       1.0000    0.33280   0.88580   0.13760   Biso      1.000     C          -0.244043           
         C20       1.0000    0.25390   0.90180   0.99040   Biso      1.000     C          -0.230767           
         C21       1.0000    0.27130   0.81820   0.93220   Biso      1.000     C          0.650563  
         C22       1.0000    0.12260   0.56050   0.15720   Biso      1.000     C          0.685204  
         C23       1.0000    0.11420   0.44700   0.13760   Biso      1.000     C          -0.244048           
         C24       1.0000    0.09820   0.35210   0.99040   Biso      1.000     C          -0.230767           
         C25       1.0000    0.18180   0.45310   0.93220   Biso      1.000     C          0.650567  
         C26       1.0000    0.43950   0.56210   0.15720   Biso      1.000     C          0.685204  
         C27       1.0000    0.87740   0.43950   0.84280   Biso      1.000     C          0.685205  
         C28       1.0000    0.81820   0.54690   0.06780   Biso      1.000     C          0.650567  
         C29       1.0000    0.74610   0.09820   0.00960   Biso      1.000     C          -0.230767           
         C30       1.0000    0.12260   0.56210   0.65720   Biso      1.000     C          0.685204  
         C31       1.0000    0.11420   0.66720   0.63760   Biso      1.000     C          -0.244045           
         C32       1.0000    0.09820   0.74610   0.49040   Biso      1.000     C          -0.230766           
         C33       1.0000    0.72870   0.18180   0.06780   Biso      1.000     C          0.650563  
         C34       1.0000    0.43950   0.87740   0.65720   Biso      1.000     C          0.685207  
         C35       1.0000    0.55300   0.88580   0.63760   Biso      1.000     C          -0.244043           
         C36       1.0000    0.64790   0.90180   0.49040   Biso      1.000     C          -0.230767           
         C37       1.0000    0.54690   0.81820   0.43220   Biso      1.000     C          0.650563  
         C38       1.0000    0.43790   0.56050   0.65720   Biso      1.000     C          0.685204  
         C39       1.0000    0.18180   0.72870   0.43220   Biso      1.000     C          0.650565  
         C40       1.0000    0.25390   0.35210   0.49040   Biso      1.000     C          -0.230767           
         C41       1.0000    0.27130   0.45310   0.43220   Biso      1.000     C          0.650567  
         C42       1.0000    0.56050   0.43790   0.84280   Biso      1.000     C          0.685204  
         C43       1.0000    0.44700   0.33280   0.86240   Biso      1.000     C          -0.244046           
         C44       1.0000    0.35210   0.25390   0.00960   Biso      1.000     C          -0.230766           
         C45       1.0000    0.45310   0.27130   0.06780   Biso      1.000     C          0.650565  
         C46       1.0000    0.66720   0.11420   0.86240   Biso      1.000     C          -0.244043           
         C47       1.0000    0.56210   0.12260   0.84280   Biso      1.000     C          0.685207  
         C48       1.0000    0.33280   0.44700   0.63760   Biso      1.000     C          -0.244048           
         Cu1       1.0000    0.00000   0.50000   0.00000   Biso      1.000     Cu          0.782562  
         Cu2       1.0000    0.50000   0.00000   0.00000   Biso      1.000     Cu          0.782559  
         Cu3       1.0000    0.50000   0.50000   0.50000   Biso      1.000     Cu          0.782562  
         Cu4       1.0000    0.50000   0.00000   0.50000   Biso      1.000     Cu          0.782558  
         Cu5       1.0000    0.00000   0.50000   0.50000   Biso      1.000     Cu          0.782558  
         Cu6       1.0000    0.50000   0.50000   0.00000   Biso      1.000     Cu          0.78256   
         H1        1.0000    0.60270   0.91740   0.69020   Biso      1.000     H          0.144433  
         H2        1.0000    0.08260   0.68530   0.69020   Biso      1.000     H          0.144434  
         H3        1.0000    0.19080   0.73190   0.62680   Biso      1.000     H          0.148782  
         H4        1.0000    0.97520   0.64890   0.57730   Biso      1.000     H          0.259088  
         H5        1.0000    0.13950   0.81950   0.52170   Biso      1.000     H          0.12815   
         H6        1.0000    0.04040   0.74790   0.45190   Biso      1.000     H          0.140722  
         H7        1.0000    0.54110   0.80920   0.62680   Biso      1.000     H          0.148776  
         H8        1.0000    0.67370   0.02480   0.57730   Biso      1.000     H          0.259089  
         H9        1.0000    0.32000   0.13950   0.47830   Biso      1.000     H          0.128147  
         H10       1.0000    0.32630   0.97520   0.42270   Biso      1.000     H          0.259089  
         H11       1.0000    0.68000   0.86050   0.52170   Biso      1.000     H          0.128146  
         H12       1.0000    0.29250   0.04040   0.54810   Biso      1.000     H          0.140722  
         H13       1.0000    0.68530   0.60270   0.30980   Biso      1.000     H          0.144434  
         H14       1.0000    0.73190   0.54110   0.37320   Biso      1.000     H          0.148778  
         H15       1.0000    0.64890   0.67370   0.42270   Biso      1.000     H          0.259091  
         H16       1.0000    0.81950   0.68000   0.47830   Biso      1.000     H          0.128151  
         H17       1.0000    0.74790   0.70750   0.54810   Biso      1.000     H          0.140726  
         H18       1.0000    0.60270   0.68530   0.19020   Biso      1.000     H          0.144434  
         H19       1.0000    0.54110   0.73190   0.12680   Biso      1.000     H          0.148782  
         H20       1.0000    0.67370   0.64890   0.07730   Biso      1.000     H          0.259088  
         H21       1.0000    0.68000   0.81950   0.02170   Biso      1.000     H          0.128151  
         H22       1.0000    0.70750   0.74790   0.95190   Biso      1.000     H          0.140723  
         H23       1.0000    0.31470   0.91740   0.19020   Biso      1.000     H          0.144433  
         H24       1.0000    0.26810   0.80920   0.12680   Biso      1.000     H          0.148776  
         H25       1.0000    0.35110   0.02480   0.07730   Biso      1.000     H          0.259089  
         H26       1.0000    0.18050   0.86050   0.02170   Biso      1.000     H          0.128146  
         H27       1.0000    0.25210   0.95960   0.95190   Biso      1.000     H          0.140721  
         H28       1.0000    0.08260   0.39730   0.19020   Biso      1.000     H          0.144434  
         H29       1.0000    0.19080   0.45890   0.12680   Biso      1.000     H          0.148778  
         H30       1.0000    0.97520   0.32630   0.07730   Biso      1.000     H          0.259091  
         H31       1.0000    0.13950   0.32000   0.02170   Biso      1.000     H          0.12815   
         H32       1.0000    0.04040   0.29250   0.95190   Biso      1.000     H          0.140724  
         H33       1.0000    0.45890   0.19080   0.37320   Biso      1.000     H          0.148776  
         H34       1.0000    0.95960   0.25210   0.54810   Biso      1.000     H          0.140722  
         H35       1.0000    0.39730   0.08260   0.30980   Biso      1.000     H          0.144433  
         H36       1.0000    0.86050   0.18050   0.47830   Biso      1.000     H          0.12815   
         H37       1.0000    0.70750   0.95960   0.45190   Biso      1.000     H          0.140721  
         H38       1.0000    0.31470   0.39730   0.69020   Biso      1.000     H          0.144434  
         H39       1.0000    0.26810   0.45890   0.62680   Biso      1.000     H          0.148778  
         H40       1.0000    0.35110   0.32630   0.57730   Biso      1.000     H          0.259091  
         H41       1.0000    0.18050   0.32000   0.52170   Biso      1.000     H          0.128151  
         H42       1.0000    0.25210   0.29250   0.45190   Biso      1.000     H          0.140725  
         H43       1.0000    0.39730   0.31470   0.80980   Biso      1.000     H          0.144435  
         H44       1.0000    0.45890   0.26810   0.87320   Biso      1.000     H          0.148782  
         H45       1.0000    0.32630   0.35110   0.92270   Biso      1.000     H          0.259088  
         H46       1.0000    0.32000   0.18050   0.97830   Biso      1.000     H          0.12815   
         H47       1.0000    0.29250   0.25210   0.04810   Biso      1.000     H          0.140723  
         H48       1.0000    0.73190   0.19080   0.87320   Biso      1.000     H          0.148776  
         H49       1.0000    0.68530   0.08260   0.80980   Biso      1.000     H          0.144433  
         H50       1.0000    0.81950   0.13950   0.97830   Biso      1.000     H          0.128146  
         H51       1.0000    0.74790   0.04040   0.04810   Biso      1.000     H          0.140721  
         H52       1.0000    0.91740   0.60270   0.80980   Biso      1.000     H          0.144434  
         H53       1.0000    0.80920   0.54110   0.87320   Biso      1.000     H          0.148778  
         H54       1.0000    0.02480   0.67370   0.92270   Biso      1.000     H          0.259091  
         H55       1.0000    0.86050   0.68000   0.97830   Biso      1.000     H          0.128151  
         H56       1.0000    0.95960   0.70750   0.04810   Biso      1.000     H          0.140725  
         H57       1.0000    0.91740   0.31470   0.30980   Biso      1.000     H          0.144435  
         H58       1.0000    0.80920   0.26810   0.37320   Biso      1.000     H          0.148782  
         H59       1.0000    0.02480   0.35110   0.42270   Biso      1.000     H          0.259088  
         H60       1.0000    0.64890   0.97520   0.92270   Biso      1.000     H          0.259089  
         N1        1.0000    0.95890   0.34830   0.44199   Biso      1.000     N          -0.285817           
         N2        1.0000    0.61060   0.65170   0.05801   Biso      1.000     N          -0.285817           
         N3        1.0000    0.38940   0.04110   0.44199   Biso      1.000     N          -0.285817           
         N4        1.0000    0.65170   0.61060   0.44199   Biso      1.000     N          -0.285815           
         N5        1.0000    0.34830   0.95890   0.05801   Biso      1.000     N          -0.285817           
         N6        1.0000    0.95890   0.61060   0.94199   Biso      1.000     N          -0.285815           
         N7        1.0000    0.04110   0.65170   0.55801   Biso      1.000     N          -0.285817           
         N8        1.0000    0.61060   0.95890   0.55801   Biso      1.000     N          -0.285817           
         N9        1.0000    0.34830   0.38940   0.55801   Biso      1.000     N          -0.285815           
         N10       1.0000    0.38940   0.34830   0.94199   Biso      1.000     N          -0.285817           
         N11       1.0000    0.04110   0.38940   0.05801   Biso      1.000     N          -0.285815           
         N12       1.0000    0.65170   0.04110   0.94199   Biso      1.000     N          -0.285817           
         Nd1       1.0000    0.33333   0.66666   0.83111   Biso      1.000     Nd          2.083185  
         Nd2       1.0000    0.33333   0.66666   0.33111   Biso      1.000     Nd          2.083185  
         Nd3       1.0000    0.66667   0.33334   0.16889   Biso      1.000     Nd          2.083186  
         Nd4       1.0000    0.66667   0.33334   0.66889   Biso      1.000     Nd          2.083186  
         O1        1.0000    0.81520   0.45220   0.05691   Biso      1.000     O          -0.672563           
         O2        1.0000    0.92590   0.40200   0.89448   Biso      1.000     O          -0.523398           
         O3        1.0000    0.82170   0.38500   0.77439   Biso      1.000     O          -0.668871           
         O4        1.0000    0.80332   0.24234   0.12408   Biso      1.000     O          -0.617164           
         O5        1.0000    0.63700   0.18480   0.05691   Biso      1.000     O          -0.672552           
         O6        1.0000    0.47610   0.07410   0.89448   Biso      1.000     O          -0.523402           
         O7        1.0000    0.56330   0.17830   0.77439   Biso      1.000     O          -0.668885           
         O8        1.0000    0.43902   0.19668   0.12408   Biso      1.000     O          -0.61715  
         O9        1.0000    0.54780   0.36300   0.05691   Biso      1.000     O          -0.672575           
         O10       1.0000    0.59800   0.52390   0.89448   Biso      1.000     O          -0.5234   
         O11       1.0000    0.19668   0.43902   0.37592   Biso      1.000     O          -0.617144           
         O12       1.0000    0.75766   0.56098   0.12408   Biso      1.000     O          -0.617144           
         O13       1.0000    0.36300   0.54780   0.44309   Biso      1.000     O          -0.672563           
         O14       1.0000    0.52390   0.59800   0.60552   Biso      1.000     O          -0.523398           
         O15       1.0000    0.43670   0.61500   0.72561   Biso      1.000     O          -0.668871           
         O16       1.0000    0.56098   0.75766   0.37592   Biso      1.000     O          -0.617165           
         O17       1.0000    0.45220   0.81520   0.44309   Biso      1.000     O          -0.672553           
         O18       1.0000    0.40200   0.92590   0.60552   Biso      1.000     O          -0.523402           
         O19       1.0000    0.38500   0.82170   0.72561   Biso      1.000     O          -0.668884           
         O20       1.0000    0.24234   0.80332   0.37592   Biso      1.000     O          -0.61715  
         O21       1.0000    0.18480   0.63700   0.44309   Biso      1.000     O          -0.672575           
         O22       1.0000    0.61500   0.43670   0.77439   Biso      1.000     O          -0.668868           
         O23       1.0000    0.82170   0.43670   0.27439   Biso      1.000     O          -0.668868           
         O24       1.0000    0.92590   0.52390   0.39448   Biso      1.000     O          -0.5234   
         O25       1.0000    0.81520   0.36300   0.55691   Biso      1.000     O          -0.672575           
         O26       1.0000    0.24234   0.43902   0.87592   Biso      1.000     O          -0.617145           
         O27       1.0000    0.18480   0.54780   0.94309   Biso      1.000     O          -0.672564           
         O28       1.0000    0.07410   0.59800   0.10552   Biso      1.000     O          -0.523398           
         O29       1.0000    0.17830   0.61500   0.22561   Biso      1.000     O          -0.668871           
         O30       1.0000    0.19668   0.75766   0.87592   Biso      1.000     O          -0.617165           
         O31       1.0000    0.36300   0.81520   0.94309   Biso      1.000     O          -0.672552           
         O32       1.0000    0.52390   0.92590   0.10552   Biso      1.000     O          -0.523402           
         O33       1.0000    0.43670   0.82170   0.22561   Biso      1.000     O          -0.668884           
         O34       1.0000    0.56098   0.80332   0.87592   Biso      1.000     O          -0.61715  
         O35       1.0000    0.45220   0.63700   0.94309   Biso      1.000     O          -0.672575           
         O36       1.0000    0.40200   0.47610   0.10552   Biso      1.000     O          -0.5234   
         O37       1.0000    0.38500   0.56330   0.22561   Biso      1.000     O          -0.668868           
         O38       1.0000    0.80332   0.56098   0.62408   Biso      1.000     O          -0.617144           
         O39       1.0000    0.63700   0.45220   0.55691   Biso      1.000     O          -0.672563           
         O40       1.0000    0.47610   0.40200   0.39448   Biso      1.000     O          -0.523398           
         O41       1.0000    0.56330   0.38500   0.27439   Biso      1.000     O          -0.668871           
         O42       1.0000    0.43902   0.24234   0.62408   Biso      1.000     O          -0.617164           
         O43       1.0000    0.54780   0.18480   0.55691   Biso      1.000     O          -0.672552           
         O44       1.0000    0.59800   0.07410   0.39448   Biso      1.000     O          -0.523402           
         O45       1.0000    0.61500   0.17830   0.27439   Biso      1.000     O          -0.668884           
         O46       1.0000    0.75766   0.19668   0.62408   Biso      1.000     O          -0.61715  
         O47       1.0000    0.07410   0.47610   0.60552   Biso      1.000     O          -0.5234   
         O48       1.0000    0.17830   0.56330   0.72561   Biso      1.000     O          -0.668868 