
##########################################################################
#               Crystallographic Information Format file
#               Produced by PyCifRW module
#
#  This is a CIF file.  CIF has been adopted by the International
#  Union of Crystallography as the standard for data archiving and
#  transmission.
#
#  For information on this file format, follow the CIF links at
#  http://www.iucr.org
##########################################################################

data_image0

_cell_length_a                          13.559
_cell_length_b                          13.559
_cell_length_c                          14.999
_cell_angle_alpha                       90
_cell_angle_beta                        90
_cell_angle_gamma                       120
_symmetry_space_group_name_H-M          'P 1'
_symmetry_int_tables_number             1
loop_
  _symmetry_equiv_pos_as_xyz
         'x, y, z' 
loop_
  _atom_site_label
  _atom_site_occupancy
  _atom_site_fract_x
  _atom_site_fract_y
  _atom_site_fract_z
  _atom_site_thermal_displace_type
  _atom_site_B_iso_or_equiv
  _atom_site_type_symbol
  _atom_site_charge
         C1        1.0000    0.72820   0.54900   0.56800   Biso      1.000     C          0.638857  
         C2        1.0000    0.55310   0.88970   0.63690   Biso      1.000     C          -0.24702600000000002          
         C3        1.0000    0.55980   0.43860   0.34360   Biso      1.000     C          0.6781229999999999  
         C4        1.0000    0.66340   0.55310   0.36310   Biso      1.000     C          -0.247029           
         C5        1.0000    0.90450   0.25600   0.50960   Biso      1.000     C          -0.22973200000000002          
         C6        1.0000    0.82080   0.27180   0.56800   Biso      1.000     C          0.6388560000000001  
         C7        1.0000    0.87880   0.44020   0.34360   Biso      1.000     C          0.678126  
         C8        1.0000    0.88970   0.33660   0.36310   Biso      1.000     C          -0.24702399999999997          
         C9        1.0000    0.25600   0.90450   0.99040   Biso      1.000     C          -0.22972800000000002          
         C10       1.0000    0.74400   0.64850   0.50960   Biso      1.000     C          -0.229733           
         C11       1.0000    0.27180   0.82080   0.93200   Biso      1.000     C          0.638861  
         C12       1.0000    0.33660   0.88970   0.13690   Biso      1.000     C          -0.247027           
         C13       1.0000    0.09550   0.35150   0.99040   Biso      1.000     C          -0.22972800000000002          
         C14       1.0000    0.17920   0.45100   0.93200   Biso      1.000     C          0.638857  
         C15       1.0000    0.12120   0.56140   0.15640   Biso      1.000     C          0.6781229999999999  
         C16       1.0000    0.11030   0.44690   0.13690   Biso      1.000     C          -0.247029           
         C17       1.0000    0.64850   0.74400   0.99040   Biso      1.000     C          -0.22973000000000002          
         C18       1.0000    0.54900   0.72820   0.93200   Biso      1.000     C          0.638857  
         C19       1.0000    0.43860   0.55980   0.15640   Biso      1.000     C          0.678127  
         C20       1.0000    0.44020   0.87880   0.15640   Biso      1.000     C          0.67812   
         C21       1.0000    0.44690   0.11030   0.36310   Biso      1.000     C          -0.24702399999999997          
         C22       1.0000    0.56140   0.12120   0.34360   Biso      1.000     C          0.6781189999999999  
         C23       1.0000    0.45100   0.17920   0.56800   Biso      1.000     C          0.63886   
         C24       1.0000    0.44020   0.56140   0.65640   Biso      1.000     C          0.678124  
         C25       1.0000    0.33660   0.44690   0.63690   Biso      1.000     C          -0.247029           
         C26       1.0000    0.09550   0.74400   0.49040   Biso      1.000     C          -0.229733           
         C27       1.0000    0.17920   0.72820   0.43200   Biso      1.000     C          0.638857  
         C28       1.0000    0.12120   0.55980   0.65640   Biso      1.000     C          0.678127  
         C29       1.0000    0.11030   0.66340   0.63690   Biso      1.000     C          -0.24702600000000002          
         C30       1.0000    0.74400   0.09550   0.00960   Biso      1.000     C          -0.229725           
         C31       1.0000    0.72820   0.17920   0.06800   Biso      1.000     C          0.63886   
         C32       1.0000    0.55980   0.12120   0.84360   Biso      1.000     C          0.678118  
         C33       1.0000    0.66340   0.11030   0.86310   Biso      1.000     C          -0.247023           
         C34       1.0000    0.90450   0.64850   0.00960   Biso      1.000     C          -0.22972800000000002          
         C35       1.0000    0.82080   0.54900   0.06800   Biso      1.000     C          0.638857  
         C36       1.0000    0.87880   0.43860   0.84360   Biso      1.000     C          0.678122  
         C37       1.0000    0.88970   0.55310   0.86310   Biso      1.000     C          -0.24702600000000002          
         C38       1.0000    0.35150   0.25600   0.00960   Biso      1.000     C          -0.229725           
         C39       1.0000    0.45100   0.27180   0.06800   Biso      1.000     C          0.638857  
         C40       1.0000    0.56140   0.44020   0.84360   Biso      1.000     C          0.678126  
         C41       1.0000    0.44690   0.33660   0.86310   Biso      1.000     C          -0.247022           
         C42       1.0000    0.35150   0.09550   0.50960   Biso      1.000     C          -0.22973200000000002          
         C43       1.0000    0.55310   0.66340   0.13690   Biso      1.000     C          -0.24702800000000003          
         C44       1.0000    0.27180   0.45100   0.43200   Biso      1.000     C          0.638858  
         C45       1.0000    0.25600   0.35150   0.49040   Biso      1.000     C          -0.22973000000000002          
         C46       1.0000    0.64850   0.90450   0.49040   Biso      1.000     C          -0.22973200000000002          
         C47       1.0000    0.54900   0.82080   0.43200   Biso      1.000     C          0.638861  
         C48       1.0000    0.43860   0.87880   0.65640   Biso      1.000     C          0.678121  
         Cu1       1.0000    0.50000   0.50000   0.00000   Biso      1.000     Cu          0.77641   
         Cu2       1.0000    0.00000   0.50000   0.00000   Biso      1.000     Cu          0.776415  
         Cu3       1.0000    0.50000   0.00000   0.00000   Biso      1.000     Cu          0.776421  
         Cu4       1.0000    0.00000   0.50000   0.50000   Biso      1.000     Cu          0.776409  
         Cu5       1.0000    0.50000   0.50000   0.50000   Biso      1.000     Cu          0.776409  
         Cu6       1.0000    0.50000   0.00000   0.50000   Biso      1.000     Cu          0.776417  
         H1        1.0000    0.02570   0.67320   0.92360   Biso      1.000     H          0.258155  
         H2        1.0000    0.25510   0.96240   0.95300   Biso      1.000     H          0.14154   
         H3        1.0000    0.18320   0.86420   0.02080   Biso      1.000     H          0.127499  
         H4        1.0000    0.02570   0.35250   0.42360   Biso      1.000     H          0.258155  
         H5        1.0000    0.81420   0.27170   0.37210   Biso      1.000     H          0.145419  
         H6        1.0000    0.72830   0.54250   0.37210   Biso      1.000     H          0.14541600000000002           
         H7        1.0000    0.96240   0.25510   0.54700   Biso      1.000     H          0.141551  
         H8        1.0000    0.86420   0.18320   0.47920   Biso      1.000     H          0.12750699999999998           
         H9        1.0000    0.64750   0.67320   0.42360   Biso      1.000     H          0.258158  
         H10       1.0000    0.32080   0.92270   0.18850   Biso      1.000     H          0.14229   
         H11       1.0000    0.92270   0.32080   0.31150   Biso      1.000     H          0.142295  
         H12       1.0000    0.27170   0.81420   0.12790   Biso      1.000     H          0.14541099999999998           
         H13       1.0000    0.18580   0.45750   0.12790   Biso      1.000     H          0.14541300000000001           
         H14       1.0000    0.13580   0.31900   0.02080   Biso      1.000     H          0.127504  
         H15       1.0000    0.03760   0.29270   0.95300   Biso      1.000     H          0.141549  
         H16       1.0000    0.07730   0.39810   0.18850   Biso      1.000     H          0.14229   
         H17       1.0000    0.67920   0.60190   0.31150   Biso      1.000     H          0.142299  
         H18       1.0000    0.97430   0.32680   0.07640   Biso      1.000     H          0.258156  
         H19       1.0000    0.68100   0.81680   0.02080   Biso      1.000     H          0.12750699999999998           
         H20       1.0000    0.70730   0.74490   0.95300   Biso      1.000     H          0.141548  
         H21       1.0000    0.60190   0.67920   0.18850   Biso      1.000     H          0.142294  
         H22       1.0000    0.54250   0.72830   0.12790   Biso      1.000     H          0.14541800000000002           
         H23       1.0000    0.67320   0.64750   0.07640   Biso      1.000     H          0.258155  
         H24       1.0000    0.35250   0.02570   0.07640   Biso      1.000     H          0.258154  
         H25       1.0000    0.31900   0.18320   0.97920   Biso      1.000     H          0.127503  
         H26       1.0000    0.74490   0.70730   0.54700   Biso      1.000     H          0.141555  
         H27       1.0000    0.32680   0.97430   0.42360   Biso      1.000     H          0.258155  
         H28       1.0000    0.81420   0.54250   0.87210   Biso      1.000     H          0.14541300000000001           
         H29       1.0000    0.92270   0.60190   0.81150   Biso      1.000     H          0.142289  
         H30       1.0000    0.96240   0.70730   0.04700   Biso      1.000     H          0.141549  
         H31       1.0000    0.86420   0.68100   0.97920   Biso      1.000     H          0.127505  
         H32       1.0000    0.64750   0.97430   0.92360   Biso      1.000     H          0.258152  
         H33       1.0000    0.72830   0.18580   0.87210   Biso      1.000     H          0.14540999999999998           
         H34       1.0000    0.67920   0.07730   0.81150   Biso      1.000     H          0.142287  
         H35       1.0000    0.74490   0.03760   0.04700   Biso      1.000     H          0.141537  
         H36       1.0000    0.81680   0.13580   0.97920   Biso      1.000     H          0.127498  
         H37       1.0000    0.97430   0.64750   0.57640   Biso      1.000     H          0.258156  
         H38       1.0000    0.29270   0.25510   0.04700   Biso      1.000     H          0.14154   
         H39       1.0000    0.07730   0.67920   0.68850   Biso      1.000     H          0.142299  
         H40       1.0000    0.03760   0.74490   0.45300   Biso      1.000     H          0.14155399999999999           
         H41       1.0000    0.13580   0.81680   0.52080   Biso      1.000     H          0.12750999999999998           
         H42       1.0000    0.35250   0.32680   0.57640   Biso      1.000     H          0.258158  
         H43       1.0000    0.27170   0.45750   0.62790   Biso      1.000     H          0.14541600000000002           
         H44       1.0000    0.32080   0.39810   0.68850   Biso      1.000     H          0.1423    
         H45       1.0000    0.45750   0.18580   0.37210   Biso      1.000     H          0.14541300000000001           
         H46       1.0000    0.39810   0.07730   0.31150   Biso      1.000     H          0.142295  
         H47       1.0000    0.29270   0.03760   0.54700   Biso      1.000     H          0.141548  
         H48       1.0000    0.31900   0.13580   0.47920   Biso      1.000     H          0.127503  
         H49       1.0000    0.32680   0.35250   0.92360   Biso      1.000     H          0.258153  
         H50       1.0000    0.45750   0.27170   0.87210   Biso      1.000     H          0.14541700000000002           
         H51       1.0000    0.81680   0.68100   0.47920   Biso      1.000     H          0.12750999999999998           
         H52       1.0000    0.39810   0.32080   0.81150   Biso      1.000     H          0.142289  
         H53       1.0000    0.70730   0.96240   0.45300   Biso      1.000     H          0.14155   
         H54       1.0000    0.60190   0.92270   0.68850   Biso      1.000     H          0.142299  
         H55       1.0000    0.54250   0.81420   0.62790   Biso      1.000     H          0.14541400000000002           
         H56       1.0000    0.67320   0.02570   0.57640   Biso      1.000     H          0.258156  
         H57       1.0000    0.18320   0.31900   0.52080   Biso      1.000     H          0.12750899999999998           
         H58       1.0000    0.25510   0.29270   0.45300   Biso      1.000     H          0.141551  
         H59       1.0000    0.68100   0.86420   0.52080   Biso      1.000     H          0.127506  
         H60       1.0000    0.18580   0.72830   0.62790   Biso      1.000     H          0.145419  
         La1       1.0000    0.33333   0.66666   0.83048   Biso      1.000     La          1.8793279999999999  
         La2       1.0000    0.33333   0.66666   0.33048   Biso      1.000     La          1.8793259999999998  
         La3       1.0000    0.66667   0.33334   0.16952   Biso      1.000     La          1.8793220000000002  
         La4       1.0000    0.66667   0.33334   0.66952   Biso      1.000     La          1.879321  
         N1        1.0000    0.61110   0.96020   0.55780   Biso      1.000     N          -0.28371399999999997          
         N2        1.0000    0.34910   0.38890   0.55780   Biso      1.000     N          -0.28371399999999997          
         N3        1.0000    0.65090   0.03980   0.94220   Biso      1.000     N          -0.28371799999999997          
         N4        1.0000    0.96020   0.61110   0.94220   Biso      1.000     N          -0.283717           
         N5        1.0000    0.38890   0.34910   0.94220   Biso      1.000     N          -0.28371799999999997          
         N6        1.0000    0.03980   0.65090   0.55780   Biso      1.000     N          -0.283715           
         N7        1.0000    0.65090   0.61110   0.44220   Biso      1.000     N          -0.28371399999999997          
         N8        1.0000    0.96020   0.34910   0.44220   Biso      1.000     N          -0.283715           
         N9        1.0000    0.34910   0.96020   0.05780   Biso      1.000     N          -0.28371599999999997          
         N10       1.0000    0.03980   0.38890   0.05780   Biso      1.000     N          -0.283715           
         N11       1.0000    0.61110   0.65090   0.05780   Biso      1.000     N          -0.28371599999999997          
         N12       1.0000    0.38890   0.03980   0.44220   Biso      1.000     N          -0.283715           
         O1        1.0000    0.80120   0.23900   0.12320   Biso      1.000     O          -0.5867439999999999           
         O2        1.0000    0.43780   0.19880   0.12320   Biso      1.000     O          -0.586729           
         O3        1.0000    0.59800   0.52340   0.89550   Biso      1.000     O          -0.530848           
         O4        1.0000    0.61170   0.43550   0.77590   Biso      1.000     O          -0.623559           
         O5        1.0000    0.81710   0.45340   0.05680   Biso      1.000     O          -0.644933           
         O6        1.0000    0.76100   0.56220   0.12320   Biso      1.000     O          -0.586734           
         O7        1.0000    0.92540   0.40200   0.89550   Biso      1.000     O          -0.530845           
         O8        1.0000    0.82380   0.38830   0.77590   Biso      1.000     O          -0.623552           
         O9        1.0000    0.63630   0.18290   0.05680   Biso      1.000     O          -0.644951           
         O10       1.0000    0.47660   0.07460   0.89550   Biso      1.000     O          -0.530852           
         O11       1.0000    0.52340   0.59800   0.60450   Biso      1.000     O          -0.530841           
         O12       1.0000    0.18290   0.63630   0.44320   Biso      1.000     O          -0.644946           
         O13       1.0000    0.23900   0.80120   0.37680   Biso      1.000     O          -0.5867180000000001           
         O14       1.0000    0.07460   0.47660   0.60450   Biso      1.000     O          -0.5308430000000001           
         O15       1.0000    0.17620   0.56450   0.72410   Biso      1.000     O          -0.623552           
         O16       1.0000    0.36370   0.54660   0.44320   Biso      1.000     O          -0.644933           
         O17       1.0000    0.19880   0.43780   0.37680   Biso      1.000     O          -0.586725           
         O18       1.0000    0.54660   0.36370   0.05680   Biso      1.000     O          -0.644948           
         O19       1.0000    0.43550   0.61170   0.72410   Biso      1.000     O          -0.623545           
         O20       1.0000    0.45340   0.81710   0.44320   Biso      1.000     O          -0.644949           
         O21       1.0000    0.56220   0.76100   0.37680   Biso      1.000     O          -0.586733           
         O22       1.0000    0.56450   0.17620   0.77590   Biso      1.000     O          -0.623566           
         O23       1.0000    0.61170   0.17620   0.27590   Biso      1.000     O          -0.6235569999999999           
         O24       1.0000    0.63630   0.45340   0.55680   Biso      1.000     O          -0.644933           
         O25       1.0000    0.43780   0.23900   0.62320   Biso      1.000     O          -0.586735           
         O26       1.0000    0.45340   0.63630   0.94320   Biso      1.000     O          -0.644948           
         O27       1.0000    0.56220   0.80120   0.87680   Biso      1.000     O          -0.586726           
         O28       1.0000    0.40200   0.47660   0.10450   Biso      1.000     O          -0.530845           
         O29       1.0000    0.38830   0.56450   0.22410   Biso      1.000     O          -0.62356  
         O30       1.0000    0.18290   0.54660   0.94320   Biso      1.000     O          -0.644934           
         O31       1.0000    0.23900   0.43780   0.87680   Biso      1.000     O          -0.586733           
         O32       1.0000    0.07460   0.59800   0.10450   Biso      1.000     O          -0.530845           
         O33       1.0000    0.17620   0.61170   0.22410   Biso      1.000     O          -0.623553           
         O34       1.0000    0.36370   0.81710   0.94320   Biso      1.000     O          -0.6449520000000001           
         O35       1.0000    0.19880   0.76100   0.87680   Biso      1.000     O          -0.586742           
         O36       1.0000    0.52340   0.92540   0.10450   Biso      1.000     O          -0.53085  
         O37       1.0000    0.43550   0.82380   0.22410   Biso      1.000     O          -0.623567           
         O38       1.0000    0.81710   0.36370   0.55680   Biso      1.000     O          -0.644947           
         O39       1.0000    0.76100   0.19880   0.62320   Biso      1.000     O          -0.586721           
         O40       1.0000    0.92540   0.52340   0.39550   Biso      1.000     O          -0.530844           
         O41       1.0000    0.82380   0.43550   0.27590   Biso      1.000     O          -0.623552           
         O42       1.0000    0.40200   0.92540   0.60450   Biso      1.000     O          -0.530846           
         O43       1.0000    0.80120   0.56220   0.62320   Biso      1.000     O          -0.586727           
         O44       1.0000    0.47660   0.40200   0.39550   Biso      1.000     O          -0.530841           
         O45       1.0000    0.56450   0.38830   0.27590   Biso      1.000     O          -0.623544           
         O46       1.0000    0.54660   0.18290   0.55680   Biso      1.000     O          -0.64495  
         O47       1.0000    0.59800   0.07460   0.39550   Biso      1.000     O          -0.5308470000000001           
         O48       1.0000    0.38830   0.82380   0.72410   Biso      1.000     O          -0.6235569999999999 