
##########################################################################
#               Crystallographic Information Format file
#               Produced by PyCifRW module
#
#  This is a CIF file.  CIF has been adopted by the International
#  Union of Crystallography as the standard for data archiving and
#  transmission.
#
#  For information on this file format, follow the CIF links at
#  http://www.iucr.org
##########################################################################

data_image0

_cell_length_a                          13.4713
_cell_length_b                          13.4713
_cell_length_c                          14.922
_cell_angle_alpha                       90
_cell_angle_beta                        90
_cell_angle_gamma                       120
_symmetry_space_group_name_H-M          'P 1'
_symmetry_int_tables_number             1
loop_
  _symmetry_equiv_pos_as_xyz
         'x, y, z' 
loop_
  _atom_site_label
  _atom_site_occupancy
  _atom_site_fract_x
  _atom_site_fract_y
  _atom_site_fract_z
  _atom_site_thermal_displace_type
  _atom_site_B_iso_or_equiv
  _atom_site_type_symbol
  _atom_site_charge
         C1        1.0000    0.33400   0.44580   0.63670   Biso      1.000     C          -0.243873           
         C2        1.0000    0.45150   0.17960   0.56680   Biso      1.000     C          0.640208  
         C3        1.0000    0.25530   0.35180   0.49130   Biso      1.000     C          -0.231104           
         C4        1.0000    0.27190   0.45150   0.43320   Biso      1.000     C          0.640212  
         C5        1.0000    0.12090   0.56120   0.65630   Biso      1.000     C          0.671204  
         C6        1.0000    0.11180   0.66600   0.63670   Biso      1.000     C          -0.24386799999999997          
         C7        1.0000    0.09650   0.74470   0.49130   Biso      1.000     C          -0.231105           
         C8        1.0000    0.17960   0.72810   0.43320   Biso      1.000     C          0.640208  
         C9        1.0000    0.56120   0.12090   0.84370   Biso      1.000     C          0.67119   
         C10       1.0000    0.43880   0.55970   0.65630   Biso      1.000     C          0.671198  
         C11       1.0000    0.66600   0.11180   0.86330   Biso      1.000     C          -0.24386999999999998          
         C12       1.0000    0.72810   0.17960   0.06680   Biso      1.000     C          0.640206  
         C13       1.0000    0.87910   0.44030   0.84370   Biso      1.000     C          0.671199  
         C14       1.0000    0.88820   0.55420   0.86330   Biso      1.000     C          -0.24386999999999998          
         C15       1.0000    0.90350   0.64820   0.00870   Biso      1.000     C          -0.23110300000000003          
         C16       1.0000    0.82040   0.54850   0.06680   Biso      1.000     C          0.640212  
         C17       1.0000    0.55970   0.43880   0.84370   Biso      1.000     C          0.671204  
         C18       1.0000    0.44580   0.33400   0.86330   Biso      1.000     C          -0.243871           
         C19       1.0000    0.35180   0.25530   0.00870   Biso      1.000     C          -0.231105           
         C20       1.0000    0.74470   0.09650   0.00870   Biso      1.000     C          -0.231106           
         C21       1.0000    0.54850   0.82040   0.43320   Biso      1.000     C          0.640206  
         C22       1.0000    0.64820   0.90350   0.49130   Biso      1.000     C          -0.231105           
         C23       1.0000    0.55420   0.88820   0.63670   Biso      1.000     C          -0.243867           
         C24       1.0000    0.74470   0.64820   0.50870   Biso      1.000     C          -0.23109899999999997          
         C25       1.0000    0.72810   0.54850   0.56680   Biso      1.000     C          0.640212  
         C26       1.0000    0.87910   0.43880   0.34370   Biso      1.000     C          0.671205  
         C27       1.0000    0.88820   0.33400   0.36330   Biso      1.000     C          -0.243867           
         C28       1.0000    0.90350   0.25530   0.50870   Biso      1.000     C          -0.231105           
         C29       1.0000    0.82040   0.27190   0.56680   Biso      1.000     C          0.640209  
         C30       1.0000    0.43880   0.87910   0.15630   Biso      1.000     C          0.671189  
         C31       1.0000    0.33400   0.88820   0.13670   Biso      1.000     C          -0.243869           
         C32       1.0000    0.25530   0.90350   0.99130   Biso      1.000     C          -0.231105           
         C33       1.0000    0.27190   0.82040   0.93320   Biso      1.000     C          0.640207  
         C34       1.0000    0.12090   0.55970   0.15630   Biso      1.000     C          0.671199  
         C35       1.0000    0.11180   0.44580   0.13670   Biso      1.000     C          -0.24386799999999997          
         C36       1.0000    0.09650   0.35180   0.99130   Biso      1.000     C          -0.231104           
         C37       1.0000    0.17960   0.45150   0.93320   Biso      1.000     C          0.640213  
         C38       1.0000    0.44030   0.56120   0.15630   Biso      1.000     C          0.671203  
         C39       1.0000    0.55420   0.66600   0.13670   Biso      1.000     C          -0.24386599999999997          
         C40       1.0000    0.64820   0.74470   0.99130   Biso      1.000     C          -0.23109899999999997          
         C41       1.0000    0.54850   0.72810   0.93320   Biso      1.000     C          0.640209  
         C42       1.0000    0.44030   0.87910   0.65630   Biso      1.000     C          0.671189  
         C43       1.0000    0.45150   0.27190   0.06680   Biso      1.000     C          0.640209  
         C44       1.0000    0.66600   0.55420   0.36330   Biso      1.000     C          -0.243869           
         C45       1.0000    0.56120   0.44030   0.34370   Biso      1.000     C          0.671199  
         C46       1.0000    0.55970   0.12090   0.34370   Biso      1.000     C          0.671191  
         C47       1.0000    0.44580   0.11180   0.36330   Biso      1.000     C          -0.24386599999999997          
         C48       1.0000    0.35180   0.09650   0.50870   Biso      1.000     C          -0.231107           
         Cu1       1.0000    0.50000   0.50000   0.00000   Biso      1.000     Cu          0.7749510000000001  
         Cu2       1.0000    0.00000   0.50000   0.00000   Biso      1.000     Cu          0.7749550000000001  
         Cu3       1.0000    0.50000   0.00000   0.00000   Biso      1.000     Cu          0.7749510000000001  
         Cu4       1.0000    0.00000   0.50000   0.50000   Biso      1.000     Cu          0.7749520000000001  
         Cu5       1.0000    0.50000   0.50000   0.50000   Biso      1.000     Cu          0.774954  
         Cu6       1.0000    0.50000   0.00000   0.50000   Biso      1.000     Cu          0.774949  
         H1        1.0000    0.13760   0.32010   0.02240   Biso      1.000     H          0.12721   
         H2        1.0000    0.73070   0.18800   0.87320   Biso      1.000     H          0.147375  
         H3        1.0000    0.64810   0.97400   0.92390   Biso      1.000     H          0.257761  
         H4        1.0000    0.13760   0.81750   0.52240   Biso      1.000     H          0.127209  
         H5        1.0000    0.03880   0.74660   0.45360   Biso      1.000     H          0.141519  
         H6        1.0000    0.25340   0.29220   0.45360   Biso      1.000     H          0.141523  
         H7        1.0000    0.18800   0.73070   0.62680   Biso      1.000     H          0.14738099999999998           
         H8        1.0000    0.97400   0.64810   0.57610   Biso      1.000     H          0.257763  
         H9        1.0000    0.18250   0.32010   0.52240   Biso      1.000     H          0.127212  
         H10       1.0000    0.68320   0.07950   0.81150   Biso      1.000     H          0.144795  
         H11       1.0000    0.07950   0.68320   0.68850   Biso      1.000     H          0.144798  
         H12       1.0000    0.74660   0.03880   0.04640   Biso      1.000     H          0.141518  
         H13       1.0000    0.96120   0.70780   0.04640   Biso      1.000     H          0.141524  
         H14       1.0000    0.02600   0.67410   0.92390   Biso      1.000     H          0.257764  
         H15       1.0000    0.81200   0.54270   0.87320   Biso      1.000     H          0.147379  
         H16       1.0000    0.92050   0.60370   0.81150   Biso      1.000     H          0.144797  
         H17       1.0000    0.31680   0.39630   0.68850   Biso      1.000     H          0.144802  
         H18       1.0000    0.86240   0.67990   0.97760   Biso      1.000     H          0.127209  
         H19       1.0000    0.32590   0.35190   0.92390   Biso      1.000     H          0.257763  
         H20       1.0000    0.45730   0.26930   0.87320   Biso      1.000     H          0.14737999999999998           
         H21       1.0000    0.39630   0.31680   0.81150   Biso      1.000     H          0.14480099999999999           
         H22       1.0000    0.29220   0.25340   0.04640   Biso      1.000     H          0.14152   
         H23       1.0000    0.32010   0.18250   0.97760   Biso      1.000     H          0.12721   
         H24       1.0000    0.81750   0.13760   0.97760   Biso      1.000     H          0.127203  
         H25       1.0000    0.67410   0.64810   0.07610   Biso      1.000     H          0.25776   
         H26       1.0000    0.26930   0.45730   0.62680   Biso      1.000     H          0.147378  
         H27       1.0000    0.67990   0.86240   0.52240   Biso      1.000     H          0.127203  
         H28       1.0000    0.03880   0.29220   0.95360   Biso      1.000     H          0.141527  
         H29       1.0000    0.07950   0.39630   0.18850   Biso      1.000     H          0.144798  
         H30       1.0000    0.18800   0.45730   0.12680   Biso      1.000     H          0.147379  
         H31       1.0000    0.97400   0.32590   0.07610   Biso      1.000     H          0.257764  
         H32       1.0000    0.18250   0.86240   0.02240   Biso      1.000     H          0.127202  
         H33       1.0000    0.25340   0.96120   0.95360   Biso      1.000     H          0.141515  
         H34       1.0000    0.31680   0.92050   0.18850   Biso      1.000     H          0.144795  
         H35       1.0000    0.26930   0.81200   0.12680   Biso      1.000     H          0.147375  
         H36       1.0000    0.35190   0.02600   0.07610   Biso      1.000     H          0.25776   
         H37       1.0000    0.86240   0.18250   0.47760   Biso      1.000     H          0.127209  
         H38       1.0000    0.54270   0.73070   0.12680   Biso      1.000     H          0.147378  
         H39       1.0000    0.92050   0.31680   0.31150   Biso      1.000     H          0.1448    
         H40       1.0000    0.81200   0.26930   0.37320   Biso      1.000     H          0.14738099999999998           
         H41       1.0000    0.02600   0.35190   0.42390   Biso      1.000     H          0.257763  
         H42       1.0000    0.81750   0.67990   0.47760   Biso      1.000     H          0.12720499999999998           
         H43       1.0000    0.74660   0.70780   0.54640   Biso      1.000     H          0.141516  
         H44       1.0000    0.68320   0.60370   0.31150   Biso      1.000     H          0.144797  
         H45       1.0000    0.70780   0.96120   0.45360   Biso      1.000     H          0.141516  
         H46       1.0000    0.60370   0.92050   0.68850   Biso      1.000     H          0.144792  
         H47       1.0000    0.54270   0.81200   0.62680   Biso      1.000     H          0.147375  
         H48       1.0000    0.67410   0.02600   0.57610   Biso      1.000     H          0.257761  
         H49       1.0000    0.67990   0.81750   0.02240   Biso      1.000     H          0.127202  
         H50       1.0000    0.70780   0.74660   0.95360   Biso      1.000     H          0.141505  
         H51       1.0000    0.35190   0.32590   0.57610   Biso      1.000     H          0.257764  
         H52       1.0000    0.60370   0.68320   0.18850   Biso      1.000     H          0.144793  
         H53       1.0000    0.45730   0.18800   0.37320   Biso      1.000     H          0.147375  
         H54       1.0000    0.39630   0.07950   0.31150   Biso      1.000     H          0.144798  
         H55       1.0000    0.29220   0.03880   0.54640   Biso      1.000     H          0.141522  
         H56       1.0000    0.32010   0.13760   0.47760   Biso      1.000     H          0.12720499999999998           
         H57       1.0000    0.64810   0.67410   0.42390   Biso      1.000     H          0.257763  
         H58       1.0000    0.73070   0.54270   0.37320   Biso      1.000     H          0.147377  
         H59       1.0000    0.32590   0.97400   0.42390   Biso      1.000     H          0.257762  
         H60       1.0000    0.96120   0.25340   0.54640   Biso      1.000     H          0.141523  
         La1       1.0000    0.66667   0.33334   0.16956   Biso      1.000     La          1.867359  
         La2       1.0000    0.66667   0.33334   0.66956   Biso      1.000     La          1.8673520000000001  
         La3       1.0000    0.33333   0.66666   0.83044   Biso      1.000     La          1.867346  
         La4       1.0000    0.33333   0.66666   0.33044   Biso      1.000     La          1.8673540000000002  
         N1        1.0000    0.38850   0.03990   0.44247   Biso      1.000     N          -0.28376999999999997          
         N2        1.0000    0.65140   0.61150   0.44247   Biso      1.000     N          -0.28376799999999996          
         N3        1.0000    0.34860   0.96010   0.05753   Biso      1.000     N          -0.283771           
         N4        1.0000    0.03990   0.38850   0.05753   Biso      1.000     N          -0.28376799999999996          
         N5        1.0000    0.61150   0.65140   0.05753   Biso      1.000     N          -0.283769           
         N6        1.0000    0.96010   0.34860   0.44247   Biso      1.000     N          -0.283769           
         N7        1.0000    0.34860   0.38850   0.55753   Biso      1.000     N          -0.28376799999999996          
         N8        1.0000    0.03990   0.65140   0.55753   Biso      1.000     N          -0.283769           
         N9        1.0000    0.65140   0.03990   0.94247   Biso      1.000     N          -0.283769           
         N10       1.0000    0.96010   0.61150   0.94247   Biso      1.000     N          -0.283767           
         N11       1.0000    0.38850   0.34860   0.94247   Biso      1.000     N          -0.28376799999999996          
         N12       1.0000    0.61150   0.96010   0.55753   Biso      1.000     N          -0.283771           
         O1        1.0000    0.36330   0.81730   0.94318   Biso      1.000     O          -0.6306229999999999           
         O2        1.0000    0.45400   0.63670   0.94318   Biso      1.000     O          -0.630655           
         O3        1.0000    0.40260   0.47660   0.10457   Biso      1.000     O          -0.52608  
         O4        1.0000    0.38660   0.56240   0.22439   Biso      1.000     O          -0.62254  
         O5        1.0000    0.24080   0.43780   0.87702   Biso      1.000     O          -0.602016           
         O6        1.0000    0.18270   0.54600   0.94318   Biso      1.000     O          -0.630649           
         O7        1.0000    0.07400   0.59740   0.10457   Biso      1.000     O          -0.5260739999999999           
         O8        1.0000    0.17580   0.61340   0.22439   Biso      1.000     O          -0.6225229999999999           
         O9        1.0000    0.19700   0.75920   0.87702   Biso      1.000     O          -0.60202  
         O10       1.0000    0.52340   0.92600   0.10457   Biso      1.000     O          -0.526085           
         O11       1.0000    0.47660   0.40260   0.39543   Biso      1.000     O          -0.526075           
         O12       1.0000    0.75920   0.19700   0.62298   Biso      1.000     O          -0.601999           
         O13       1.0000    0.81730   0.36330   0.55682   Biso      1.000     O          -0.630652           
         O14       1.0000    0.92600   0.52340   0.39543   Biso      1.000     O          -0.526075           
         O15       1.0000    0.82420   0.43760   0.27561   Biso      1.000     O          -0.622536           
         O16       1.0000    0.80300   0.56220   0.62298   Biso      1.000     O          -0.602015           
         O17       1.0000    0.63670   0.45400   0.55682   Biso      1.000     O          -0.6306510000000001           
         O18       1.0000    0.56220   0.80300   0.87702   Biso      1.000     O          -0.602005           
         O19       1.0000    0.56240   0.38660   0.27561   Biso      1.000     O          -0.622524           
         O20       1.0000    0.43780   0.24080   0.62298   Biso      1.000     O          -0.602016           
         O21       1.0000    0.54600   0.18270   0.55682   Biso      1.000     O          -0.6306229999999999           
         O22       1.0000    0.43760   0.82420   0.22439   Biso      1.000     O          -0.622505           
         O23       1.0000    0.38660   0.82420   0.72439   Biso      1.000     O          -0.622503           
         O24       1.0000    0.19700   0.43780   0.37702   Biso      1.000     O          -0.602017           
         O25       1.0000    0.45400   0.81730   0.44318   Biso      1.000     O          -0.630626           
         O26       1.0000    0.43780   0.19700   0.12298   Biso      1.000     O          -0.602003           
         O27       1.0000    0.54600   0.36330   0.05682   Biso      1.000     O          -0.630653           
         O28       1.0000    0.59740   0.52340   0.89543   Biso      1.000     O          -0.526075           
         O29       1.0000    0.61340   0.43760   0.77561   Biso      1.000     O          -0.62254  
         O30       1.0000    0.75920   0.56220   0.12298   Biso      1.000     O          -0.602015           
         O31       1.0000    0.81730   0.45400   0.05682   Biso      1.000     O          -0.630652           
         O32       1.0000    0.92600   0.40260   0.89543   Biso      1.000     O          -0.5260729999999999           
         O33       1.0000    0.82420   0.38660   0.77561   Biso      1.000     O          -0.622524           
         O34       1.0000    0.80300   0.24080   0.12298   Biso      1.000     O          -0.602019           
         O35       1.0000    0.63670   0.18270   0.05682   Biso      1.000     O          -0.630624           
         O36       1.0000    0.47660   0.07400   0.89543   Biso      1.000     O          -0.526084           
         O37       1.0000    0.56240   0.17580   0.77561   Biso      1.000     O          -0.622506           
         O38       1.0000    0.24080   0.80300   0.37702   Biso      1.000     O          -0.602001           
         O39       1.0000    0.18270   0.63670   0.44318   Biso      1.000     O          -0.630654           
         O40       1.0000    0.07400   0.47660   0.60457   Biso      1.000     O          -0.526077           
         O41       1.0000    0.17580   0.56240   0.72439   Biso      1.000     O          -0.622537           
         O42       1.0000    0.59740   0.07400   0.39543   Biso      1.000     O          -0.526083           
         O43       1.0000    0.36330   0.54600   0.44318   Biso      1.000     O          -0.63065  
         O44       1.0000    0.52340   0.59740   0.60457   Biso      1.000     O          -0.5260729999999999           
         O45       1.0000    0.43760   0.61340   0.72439   Biso      1.000     O          -0.6225229999999999           
         O46       1.0000    0.56220   0.75920   0.37702   Biso      1.000     O          -0.602017           
         O47       1.0000    0.40260   0.92600   0.60457   Biso      1.000     O          -0.526085           
         O48       1.0000    0.61340   0.17580   0.27561   Biso      1.000     O          -0.622501 