
##########################################################################
#               Crystallographic Information Format file
#               Produced by PyCifRW module
#
#  This is a CIF file.  CIF has been adopted by the International
#  Union of Crystallography as the standard for data archiving and
#  transmission.
#
#  For information on this file format, follow the CIF links at
#  http://www.iucr.org
##########################################################################

data_image0

_cell_length_a                          15.6152
_cell_length_b                          15.6152
_cell_length_c                          7.4963
_cell_angle_alpha                       90
_cell_angle_beta                        90
_cell_angle_gamma                       90
_symmetry_space_group_name_H-M          'P 1'
_symmetry_int_tables_number             1
loop_
  _symmetry_equiv_pos_as_xyz
         'x, y, z' 
loop_
  _atom_site_label
  _atom_site_occupancy
  _atom_site_fract_x
  _atom_site_fract_y
  _atom_site_fract_z
  _atom_site_thermal_displace_type
  _atom_site_B_iso_or_equiv
  _atom_site_type_symbol
  _atom_site_charge
         C1        1.0000    0.27682   0.00000   0.83942   Biso      1.000     C          -0.21856199999999998          
         C2        1.0000    0.00000   0.32133   0.50000   Biso      1.000     C          0.034114  
         C3        1.0000    0.14330   0.00000   0.00000   Biso      1.000     C          0.141586  
         C4        1.0000    0.72318   0.00000   0.83942   Biso      1.000     C          -0.21856799999999998          
         C5        1.0000    0.81220   0.00000   0.83942   Biso      1.000     C          0.25645999999999997           
         C6        1.0000    0.00000   0.41547   0.50000   Biso      1.000     C          0.256127  
         C7        1.0000    0.00000   0.85670   0.50000   Biso      1.000     C          0.142184  
         C8        1.0000    0.18780   0.00000   0.83942   Biso      1.000     C          0.25645999999999997           
         C9        1.0000    0.00000   0.27682   0.33942   Biso      1.000     C          -0.220902           
         C10       1.0000    0.00000   0.18780   0.33942   Biso      1.000     C          0.256499  
         C11       1.0000    0.85670   0.00000   0.00000   Biso      1.000     C          0.14158800000000002           
         C12       1.0000    0.00000   0.72318   0.33942   Biso      1.000     C          -0.22091  
         C13       1.0000    0.00000   0.81220   0.33942   Biso      1.000     C          0.256499  
         C14       1.0000    0.67867   0.00000   0.00000   Biso      1.000     C          0.035005  
         C15       1.0000    0.41547   0.00000   0.00000   Biso      1.000     C          0.256417  
         C16       1.0000    0.32133   0.00000   0.00000   Biso      1.000     C          0.035004  
         C17       1.0000    0.00000   0.81220   0.66058   Biso      1.000     C          0.256499  
         C18       1.0000    0.00000   0.72318   0.66058   Biso      1.000     C          -0.22090900000000002          
         C19       1.0000    0.58453   0.00000   0.00000   Biso      1.000     C          0.256402  
         C20       1.0000    0.00000   0.14330   0.50000   Biso      1.000     C          0.142182  
         C21       1.0000    0.72318   0.00000   0.16058   Biso      1.000     C          -0.21856799999999998          
         C22       1.0000    0.18780   0.00000   0.16058   Biso      1.000     C          0.25645999999999997           
         C23       1.0000    0.81220   0.00000   0.16058   Biso      1.000     C          0.25645999999999997           
         C24       1.0000    0.00000   0.67867   0.50000   Biso      1.000     C          0.034116  
         C25       1.0000    0.27682   0.00000   0.16058   Biso      1.000     C          -0.21856199999999998          
         C26       1.0000    0.00000   0.18780   0.66058   Biso      1.000     C          0.2565    
         C27       1.0000    0.00000   0.27682   0.66058   Biso      1.000     C          -0.220904           
         C28       1.0000    0.00000   0.58453   0.50000   Biso      1.000     C          0.256128  
         H1        1.0000    0.69340   0.00000   0.73198   Biso      1.000     H          0.14947   
         H2        1.0000    0.00000   0.30660   0.23198   Biso      1.000     H          0.14921600000000002           
         H3        1.0000    0.69340   0.00000   0.26802   Biso      1.000     H          0.14946900000000002           
         H4        1.0000    0.30660   0.00000   0.73198   Biso      1.000     H          0.14946900000000002           
         H5        1.0000    0.00000   0.69340   0.23198   Biso      1.000     H          0.14921700000000002           
         H6        1.0000    0.00000   0.30660   0.76802   Biso      1.000     H          0.14921500000000001           
         H7        1.0000    0.00000   0.69340   0.76802   Biso      1.000     H          0.14921900000000002           
         H8        1.0000    0.30660   0.00000   0.26802   Biso      1.000     H          0.14946900000000002           
         N1        1.0000    0.45773   0.00000   0.15250   Biso      1.000     N          -0.131331           
         N2        1.0000    0.00000   0.45773   0.34750   Biso      1.000     N          -0.12725899999999998          
         N3        1.0000    0.54227   0.00000   0.15250   Biso      1.000     N          -0.131259           
         N4        1.0000    0.00000   0.54227   0.65250   Biso      1.000     N          -0.12725899999999998          
         N5        1.0000    0.45773   0.00000   0.84750   Biso      1.000     N          -0.131331           
         N6        1.0000    0.00000   0.45773   0.65250   Biso      1.000     N          -0.127189           
         N7        1.0000    0.00000   0.54227   0.34750   Biso      1.000     N          -0.127189           
         N8        1.0000    0.54227   0.00000   0.84750   Biso      1.000     N          -0.131259           
         O1        1.0000    0.93357   0.00000   0.00000   Biso      1.000     O          -0.522125           
         O2        1.0000    0.00000   0.06643   0.50000   Biso      1.000     O          -0.522291           
         O3        1.0000    0.00000   0.93357   0.50000   Biso      1.000     O          -0.5222899999999999           
         O4        1.0000    0.00000   0.85382   0.18923   Biso      1.000     O          -0.49898400000000004          
         O5        1.0000    0.00000   0.14618   0.18923   Biso      1.000     O          -0.498985           
         O6        1.0000    0.14618   0.00000   0.68923   Biso      1.000     O          -0.49809  
         O7        1.0000    0.85382   0.00000   0.68923   Biso      1.000     O          -0.49808900000000006          
         O8        1.0000    0.00000   0.85382   0.81077   Biso      1.000     O          -0.49898400000000004          
         O9        1.0000    0.00000   0.14618   0.81077   Biso      1.000     O          -0.498985           
         O10       1.0000    0.85382   0.00000   0.31077   Biso      1.000     O          -0.49808900000000006          
         O11       1.0000    0.14618   0.00000   0.31077   Biso      1.000     O          -0.49809  
         O12       1.0000    0.06643   0.00000   0.00000   Biso      1.000     O          -0.522126           
         Zr1       1.0000    0.00000   0.00000   0.75000   Biso      1.000     Zr          1.945828  
         Zr2       1.0000    0.00000   0.00000   0.25000   Biso      1.000     Zr          1.945828 