
##########################################################################
#               Crystallographic Information Format file
#               Produced by PyCifRW module
#
#  This is a CIF file.  CIF has been adopted by the International
#  Union of Crystallography as the standard for data archiving and
#  transmission.
#
#  For information on this file format, follow the CIF links at
#  http://www.iucr.org
##########################################################################

data_image0

_cell_length_a                          13.3031
_cell_length_b                          13.3031
_cell_length_c                          14.566
_cell_angle_alpha                       90
_cell_angle_beta                        90
_cell_angle_gamma                       120
_symmetry_space_group_name_H-M          'P 1'
_symmetry_int_tables_number             1
loop_
  _symmetry_equiv_pos_as_xyz
         'x, y, z' 
loop_
  _atom_site_label
  _atom_site_occupancy
  _atom_site_fract_x
  _atom_site_fract_y
  _atom_site_fract_z
  _atom_site_thermal_displace_type
  _atom_site_B_iso_or_equiv
  _atom_site_type_symbol
  _atom_site_charge
         C1        1.0000    0.88460   0.55360   0.13870   Biso      1.000     C          -0.23704299999999998          
         C2        1.0000    0.35140   0.09770   0.48850   Biso      1.000     C          -0.23958200000000002          
         C3        1.0000    0.45160   0.18230   0.43000   Biso      1.000     C          0.63594   
         C4        1.0000    0.56090   0.43670   0.15940   Biso      1.000     C          0.650487  
         C5        1.0000    0.44640   0.33100   0.13870   Biso      1.000     C          -0.23699699999999999          
         C6        1.0000    0.35140   0.25370   0.98850   Biso      1.000     C          -0.239351           
         C7        1.0000    0.45160   0.26930   0.93000   Biso      1.000     C          0.636337  
         C8        1.0000    0.87580   0.43910   0.15940   Biso      1.000     C          0.650507  
         C9        1.0000    0.90230   0.64860   0.98850   Biso      1.000     C          -0.23949299999999998          
         C10       1.0000    0.81770   0.54840   0.93000   Biso      1.000     C          0.6361359999999999  
         C11       1.0000    0.56330   0.12420   0.15940   Biso      1.000     C          0.650278  
         C12       1.0000    0.66900   0.11540   0.13870   Biso      1.000     C          -0.236936           
         C13       1.0000    0.74630   0.09770   0.98850   Biso      1.000     C          -0.23918899999999998          
         C14       1.0000    0.73070   0.18230   0.93000   Biso      1.000     C          0.636013  
         C15       1.0000    0.12420   0.56330   0.34060   Biso      1.000     C          0.650363  
         C16       1.0000    0.11540   0.66900   0.36130   Biso      1.000     C          -0.236973           
         C17       1.0000    0.09770   0.74630   0.51150   Biso      1.000     C          -0.23923200000000003          
         C18       1.0000    0.18230   0.73070   0.57000   Biso      1.000     C          0.636228  
         C19       1.0000    0.43670   0.56090   0.34060   Biso      1.000     C          0.650315  
         C20       1.0000    0.33100   0.44640   0.36130   Biso      1.000     C          -0.237011           
         C21       1.0000    0.25370   0.35140   0.51150   Biso      1.000     C          -0.239227           
         C22       1.0000    0.26930   0.45160   0.57000   Biso      1.000     C          0.6361720000000001  
         C23       1.0000    0.43910   0.87580   0.34060   Biso      1.000     C          0.650678  
         C24       1.0000    0.55360   0.88460   0.36130   Biso      1.000     C          -0.237116           
         C25       1.0000    0.44640   0.11540   0.63870   Biso      1.000     C          -0.237112           
         C26       1.0000    0.56090   0.12420   0.65940   Biso      1.000     C          0.650674  
         C27       1.0000    0.73070   0.54840   0.43000   Biso      1.000     C          0.636187  
         C28       1.0000    0.74630   0.64860   0.48850   Biso      1.000     C          -0.239227           
         C29       1.0000    0.43910   0.56330   0.84060   Biso      1.000     C          0.650482  
         C30       1.0000    0.55360   0.66900   0.86130   Biso      1.000     C          -0.23699800000000001          
         C31       1.0000    0.64860   0.74630   0.01150   Biso      1.000     C          -0.239351           
         C32       1.0000    0.54840   0.73070   0.07000   Biso      1.000     C          0.636337  
         C33       1.0000    0.12420   0.56090   0.84060   Biso      1.000     C          0.6505029999999999  
         C34       1.0000    0.64860   0.90230   0.51150   Biso      1.000     C          -0.23958000000000002          
         C35       1.0000    0.09770   0.35140   0.01150   Biso      1.000     C          -0.23949299999999998          
         C36       1.0000    0.18230   0.45160   0.07000   Biso      1.000     C          0.6361359999999999  
         C37       1.0000    0.43670   0.87580   0.84060   Biso      1.000     C          0.650274  
         C38       1.0000    0.11540   0.44640   0.86130   Biso      1.000     C          -0.23704099999999997          
         C39       1.0000    0.25370   0.90230   0.01150   Biso      1.000     C          -0.239188           
         C40       1.0000    0.26930   0.81770   0.07000   Biso      1.000     C          0.636012  
         C41       1.0000    0.87580   0.43670   0.65940   Biso      1.000     C          0.650363  
         C42       1.0000    0.88460   0.33100   0.63870   Biso      1.000     C          -0.236972           
         C43       1.0000    0.90230   0.25370   0.48850   Biso      1.000     C          -0.23923000000000003          
         C44       1.0000    0.81770   0.26930   0.43000   Biso      1.000     C          0.636239  
         C45       1.0000    0.56330   0.43910   0.65940   Biso      1.000     C          0.650316  
         C46       1.0000    0.66900   0.55360   0.63870   Biso      1.000     C          -0.23700900000000003          
         C47       1.0000    0.33100   0.88460   0.86130   Biso      1.000     C          -0.236936           
         C48       1.0000    0.54840   0.81770   0.57000   Biso      1.000     C          0.635933  
         Cu1       1.0000    0.50000   0.50000   0.00000   Biso      1.000     Cu          0.815706  
         Cu2       1.0000    0.00000   0.50000   0.00000   Biso      1.000     Cu          0.8188439999999999  
         Cu3       1.0000    0.50000   0.00000   0.00000   Biso      1.000     Cu          0.8183630000000001  
         Cu4       1.0000    0.00000   0.50000   0.50000   Biso      1.000     Cu          0.8161069999999999  
         Cu5       1.0000    0.50000   0.50000   0.50000   Biso      1.000     Cu          0.817419  
         Cu6       1.0000    0.50000   0.00000   0.50000   Biso      1.000     Cu          0.8200540000000001  
         Eu1       1.0000    0.33333   0.66666   0.66859   Biso      1.000     Eu          1.337273  
         Eu2       1.0000    0.66667   0.33334   0.33142   Biso      1.000     Eu          1.337299  
         Eu3       1.0000    0.66667   0.33334   0.83142   Biso      1.000     Eu          1.336873  
         Eu4       1.0000    0.33333   0.66666   0.16858   Biso      1.000     Eu          1.336874  
         H1        1.0000    0.91640   0.60380   0.19180   Biso      1.000     H          0.149269  
         H2        1.0000    0.80750   0.54160   0.12790   Biso      1.000     H          0.151361  
         H3        1.0000    0.02460   0.67580   0.07750   Biso      1.000     H          0.258292  
         H4        1.0000    0.86170   0.68270   0.01910   Biso      1.000     H          0.128826  
         H5        1.0000    0.96150   0.70760   0.94950   Biso      1.000     H          0.138855  
         H6        1.0000    0.68740   0.08360   0.19180   Biso      1.000     H          0.14901099999999998           
         H7        1.0000    0.73410   0.19250   0.12790   Biso      1.000     H          0.151409  
         H8        1.0000    0.65120   0.97540   0.07750   Biso      1.000     H          0.258033  
         H9        1.0000    0.82100   0.13830   0.01910   Biso      1.000     H          0.128762  
         H10       1.0000    0.74610   0.03850   0.94950   Biso      1.000     H          0.138737  
         H11       1.0000    0.08360   0.68740   0.30820   Biso      1.000     H          0.149116  
         H12       1.0000    0.19250   0.73410   0.37210   Biso      1.000     H          0.151278  
         H13       1.0000    0.97540   0.65120   0.42250   Biso      1.000     H          0.258288  
         H14       1.0000    0.13830   0.82100   0.48090   Biso      1.000     H          0.128614  
         H15       1.0000    0.03850   0.74610   0.55050   Biso      1.000     H          0.138703  
         H16       1.0000    0.31260   0.39620   0.30820   Biso      1.000     H          0.148971  
         H17       1.0000    0.26590   0.45840   0.37210   Biso      1.000     H          0.151393  
         H18       1.0000    0.34880   0.32420   0.42250   Biso      1.000     H          0.257768  
         H19       1.0000    0.17900   0.31730   0.48090   Biso      1.000     H          0.128743  
         H20       1.0000    0.25390   0.29240   0.55050   Biso      1.000     H          0.138677  
         H21       1.0000    0.60380   0.91640   0.30820   Biso      1.000     H          0.14948   
         H22       1.0000    0.54160   0.80750   0.37210   Biso      1.000     H          0.151522  
         H23       1.0000    0.67580   0.02460   0.42250   Biso      1.000     H          0.25846199999999997           
         H24       1.0000    0.68270   0.86170   0.48090   Biso      1.000     H          0.129038  
         H25       1.0000    0.70760   0.96150   0.55050   Biso      1.000     H          0.138988  
         H26       1.0000    0.91640   0.31260   0.69180   Biso      1.000     H          0.149116  
         H27       1.0000    0.29240   0.25390   0.94950   Biso      1.000     H          0.138693  
         H28       1.0000    0.31730   0.17900   0.01910   Biso      1.000     H          0.128672  
         H29       1.0000    0.25390   0.96150   0.05050   Biso      1.000     H          0.138738  
         H30       1.0000    0.45840   0.26590   0.12790   Biso      1.000     H          0.151394  
         H31       1.0000    0.17900   0.86170   0.98090   Biso      1.000     H          0.128761  
         H32       1.0000    0.34880   0.02460   0.92250   Biso      1.000     H          0.258033  
         H33       1.0000    0.26590   0.80750   0.87210   Biso      1.000     H          0.151409  
         H34       1.0000    0.31260   0.91640   0.80820   Biso      1.000     H          0.14901199999999998           
         H35       1.0000    0.03850   0.29240   0.05050   Biso      1.000     H          0.138855  
         H36       1.0000    0.13830   0.31730   0.98090   Biso      1.000     H          0.128827  
         H37       1.0000    0.97540   0.32420   0.92250   Biso      1.000     H          0.258291  
         H38       1.0000    0.19250   0.45840   0.87210   Biso      1.000     H          0.151362  
         H39       1.0000    0.08360   0.39620   0.80820   Biso      1.000     H          0.14927   
         H40       1.0000    0.70760   0.74610   0.05050   Biso      1.000     H          0.138694  
         H41       1.0000    0.68270   0.82100   0.98090   Biso      1.000     H          0.128672  
         H42       1.0000    0.67580   0.65120   0.92250   Biso      1.000     H          0.257863  
         H43       1.0000    0.60380   0.68740   0.80820   Biso      1.000     H          0.148991  
         H44       1.0000    0.80750   0.26590   0.62790   Biso      1.000     H          0.151278  
         H45       1.0000    0.54160   0.73410   0.87210   Biso      1.000     H          0.151394  
         H46       1.0000    0.86170   0.17900   0.51910   Biso      1.000     H          0.128614  
         H47       1.0000    0.32420   0.34880   0.07750   Biso      1.000     H          0.257863  
         H48       1.0000    0.39620   0.31260   0.19180   Biso      1.000     H          0.14899   
         H49       1.0000    0.29240   0.03850   0.44950   Biso      1.000     H          0.138989  
         H50       1.0000    0.31730   0.13830   0.51910   Biso      1.000     H          0.12903900000000001           
         H51       1.0000    0.02460   0.34880   0.57750   Biso      1.000     H          0.25829   
         H52       1.0000    0.45840   0.19250   0.62790   Biso      1.000     H          0.15152100000000002           
         H53       1.0000    0.39620   0.08360   0.69180   Biso      1.000     H          0.14948   
         H54       1.0000    0.32420   0.97540   0.57750   Biso      1.000     H          0.258463  
         H55       1.0000    0.82100   0.68270   0.51910   Biso      1.000     H          0.128745  
         H56       1.0000    0.65120   0.67580   0.57750   Biso      1.000     H          0.257768  
         H57       1.0000    0.73410   0.54160   0.62790   Biso      1.000     H          0.151393  
         H58       1.0000    0.68740   0.60380   0.69180   Biso      1.000     H          0.148971  
         H59       1.0000    0.96150   0.25390   0.44950   Biso      1.000     H          0.138704  
         H60       1.0000    0.74610   0.70760   0.44950   Biso      1.000     H          0.138678  
         N1        1.0000    0.65390   0.61220   0.55802   Biso      1.000     N          -0.249308           
         N2        1.0000    0.61220   0.65390   0.94198   Biso      1.000     N          -0.246937           
         N3        1.0000    0.04170   0.38780   0.94198   Biso      1.000     N          -0.246454           
         N4        1.0000    0.34610   0.95830   0.94198   Biso      1.000     N          -0.249971           
         N5        1.0000    0.95830   0.34610   0.55802   Biso      1.000     N          -0.248297           
         N6        1.0000    0.38780   0.04170   0.55802   Biso      1.000     N          -0.24591  
         N7        1.0000    0.34610   0.38780   0.44198   Biso      1.000     N          -0.24931  
         N8        1.0000    0.95830   0.61220   0.05802   Biso      1.000     N          -0.24645300000000003          
         N9        1.0000    0.65390   0.04170   0.05802   Biso      1.000     N          -0.24996999999999997          
         N10       1.0000    0.04170   0.65390   0.44198   Biso      1.000     N          -0.248298           
         N11       1.0000    0.61220   0.95830   0.44198   Biso      1.000     N          -0.24591100000000002          
         N12       1.0000    0.38780   0.34610   0.05802   Biso      1.000     N          -0.246935           
         O1        1.0000    0.43830   0.24400   0.37330   Biso      1.000     O          -0.585964           
         O2        1.0000    0.59890   0.07510   0.60630   Biso      1.000     O          -0.498266           
         O3        1.0000    0.61710   0.18140   0.72767   Biso      1.000     O          -0.537804           
         O4        1.0000    0.63940   0.45210   0.44094   Biso      1.000     O          -0.617115           
         O5        1.0000    0.80570   0.56170   0.37330   Biso      1.000     O          -0.591198           
         O6        1.0000    0.47620   0.40110   0.60630   Biso      1.000     O          -0.496988           
         O7        1.0000    0.56430   0.38290   0.72767   Biso      1.000     O          -0.537642           
         O8        1.0000    0.81270   0.36060   0.44094   Biso      1.000     O          -0.617895           
         O9        1.0000    0.75600   0.19430   0.37330   Biso      1.000     O          -0.59113  
         O10       1.0000    0.92490   0.52380   0.60630   Biso      1.000     O          -0.49631800000000004          
         O11       1.0000    0.19430   0.75600   0.12670   Biso      1.000     O          -0.590666           
         O12       1.0000    0.36060   0.81270   0.05906   Biso      1.000     O          -0.615301           
         O13       1.0000    0.52380   0.92490   0.89370   Biso      1.000     O          -0.497055           
         O14       1.0000    0.43570   0.81860   0.77233   Biso      1.000     O          -0.538606           
         O15       1.0000    0.18730   0.54790   0.05906   Biso      1.000     O          -0.618581           
         O16       1.0000    0.24400   0.43830   0.12670   Biso      1.000     O          -0.5860920000000001           
         O17       1.0000    0.07510   0.59890   0.89370   Biso      1.000     O          -0.49919600000000003          
         O18       1.0000    0.56170   0.80570   0.12670   Biso      1.000     O          -0.589482           
         O19       1.0000    0.18140   0.61710   0.77233   Biso      1.000     O          -0.539326           
         O20       1.0000    0.45210   0.63940   0.05906   Biso      1.000     O          -0.620297           
         O21       1.0000    0.54790   0.18730   0.44094   Biso      1.000     O          -0.61939  
         O22       1.0000    0.81860   0.43570   0.72767   Biso      1.000     O          -0.538845           
         O23       1.0000    0.61710   0.43570   0.22767   Biso      1.000     O          -0.5381600000000001           
         O24       1.0000    0.40110   0.92490   0.39370   Biso      1.000     O          -0.498266           
         O25       1.0000    0.43830   0.19430   0.87330   Biso      1.000     O          -0.589482           
         O26       1.0000    0.40110   0.47620   0.89370   Biso      1.000     O          -0.49777200000000005          
         O27       1.0000    0.45210   0.81270   0.55906   Biso      1.000     O          -0.619383           
         O28       1.0000    0.56170   0.75600   0.62670   Biso      1.000     O          -0.585973           
         O29       1.0000    0.38290   0.81860   0.27233   Biso      1.000     O          -0.5378029999999999           
         O30       1.0000    0.36060   0.54790   0.55906   Biso      1.000     O          -0.617073           
         O31       1.0000    0.19430   0.43830   0.62670   Biso      1.000     O          -0.59121  
         O32       1.0000    0.52380   0.59890   0.39370   Biso      1.000     O          -0.496988           
         O33       1.0000    0.43570   0.61710   0.27233   Biso      1.000     O          -0.53764  
         O34       1.0000    0.18730   0.63940   0.55906   Biso      1.000     O          -0.617848           
         O35       1.0000    0.24400   0.80570   0.62670   Biso      1.000     O          -0.591145           
         O36       1.0000    0.07510   0.47620   0.39370   Biso      1.000     O          -0.496317           
         O37       1.0000    0.18140   0.56430   0.27233   Biso      1.000     O          -0.538845           
         O38       1.0000    0.63940   0.18730   0.94094   Biso      1.000     O          -0.6153   
         O39       1.0000    0.80570   0.24400   0.87330   Biso      1.000     O          -0.590666           
         O40       1.0000    0.47620   0.07510   0.10630   Biso      1.000     O          -0.49705699999999997          
         O41       1.0000    0.56430   0.18140   0.22767   Biso      1.000     O          -0.538609           
         O42       1.0000    0.81270   0.45210   0.94094   Biso      1.000     O          -0.61858  
         O43       1.0000    0.75600   0.56170   0.87330   Biso      1.000     O          -0.5860920000000001           
         O44       1.0000    0.92490   0.40110   0.10630   Biso      1.000     O          -0.49919600000000003          
         O45       1.0000    0.81860   0.38290   0.22767   Biso      1.000     O          -0.539323           
         O46       1.0000    0.54790   0.36060   0.94094   Biso      1.000     O          -0.620296           
         O47       1.0000    0.59890   0.52380   0.10630   Biso      1.000     O          -0.49777200000000005          
         O48       1.0000    0.38290   0.56430   0.77233   Biso      1.000     O          -0.538162 