
##########################################################################
#               Crystallographic Information Format file
#               Produced by PyCifRW module
#
#  This is a CIF file.  CIF has been adopted by the International
#  Union of Crystallography as the standard for data archiving and
#  transmission.
#
#  For information on this file format, follow the CIF links at
#  http://www.iucr.org
##########################################################################

data_image0

_cell_length_a                          11.0607
_cell_length_b                          12.8079
_cell_length_c                          12.936
_cell_angle_alpha                       107.502
_cell_angle_beta                        105.81
_cell_angle_gamma                       106.097
_symmetry_space_group_name_H-M          'P 1'
_symmetry_int_tables_number             1
loop_
  _symmetry_equiv_pos_as_xyz
         'x, y, z' 
loop_
  _atom_site_label
  _atom_site_occupancy
  _atom_site_fract_x
  _atom_site_fract_y
  _atom_site_fract_z
  _atom_site_thermal_displace_type
  _atom_site_B_iso_or_equiv
  _atom_site_type_symbol
  _atom_site_charge
         B1        1.0000    0.85590   0.01390   0.92970   Biso      1.000     B          0.034089  
         B2        1.0000    0.60560   0.61920   0.99090   Biso      1.000     B          0.042164  
         B3        1.0000    0.06430   0.50560   0.63600   Biso      1.000     B          0.028968  
         B4        1.0000    0.53750   0.37750   0.97280   Biso      1.000     B          0.035660000000000004          
         B5        1.0000    0.16880   0.52970   0.55380   Biso      1.000     B          0.03539   
         B6        1.0000    0.56410   0.47040   0.89480   Biso      1.000     B          0.038325  
         B7        1.0000    0.93430   0.55640   0.59710   Biso      1.000     B          0.032644  
         B8        1.0000    0.39440   0.38080   0.00910   Biso      1.000     B          0.040406  
         B9        1.0000    0.56200   0.46730   0.11540   Biso      1.000     B          0.033148000000000004          
         B10       1.0000    0.66670   0.52260   0.04520   Biso      1.000     B          0.035082  
         B11       1.0000    0.89740   0.40370   0.53490   Biso      1.000     B          0.032046  
         B12       1.0000    0.13500   0.12660   0.09840   Biso      1.000     B          0.03518   
         B13       1.0000    0.03730   0.88970   0.92080   Biso      1.000     B          0.043696  
         B14       1.0000    0.13220   0.04180   0.96110   Biso      1.000     B          0.027677999999999998          
         B15       1.0000    0.97590   0.88010   0.03320   Biso      1.000     B          0.031426  
         B16       1.0000    0.10180   0.63600   0.60870   Biso      1.000     B          0.0404    
         B17       1.0000    0.14410   0.98610   0.07030   Biso      1.000     B          0.03451   
         B18       1.0000    0.93570   0.49440   0.36400   Biso      1.000     B          0.030119  
         B19       1.0000    0.83120   0.47030   0.44620   Biso      1.000     B          0.035446  
         B20       1.0000    0.43590   0.52960   0.10520   Biso      1.000     B          0.037055000000000005          
         B21       1.0000    0.06570   0.44360   0.40290   Biso      1.000     B          0.032255  
         B22       1.0000    0.43800   0.53270   0.88460   Biso      1.000     B          0.032501999999999996          
         B23       1.0000    0.89820   0.36400   0.39130   Biso      1.000     B          0.038937  
         B24       1.0000    0.33330   0.47740   0.95480   Biso      1.000     B          0.032822000000000004          
         B25       1.0000    0.10260   0.59630   0.46510   Biso      1.000     B          0.034147000000000004          
         B26       1.0000    0.86500   0.87340   0.90160   Biso      1.000     B          0.03452   
         B27       1.0000    0.46250   0.62250   0.02720   Biso      1.000     B          0.035195  
         B28       1.0000    0.96270   0.11030   0.07920   Biso      1.000     B          0.044775999999999996          
         B29       1.0000    0.86780   0.95820   0.03890   Biso      1.000     B          0.029381  
         B30       1.0000    0.02410   0.11990   0.96680   Biso      1.000     B          0.030159  
         C1        1.0000    0.59630   0.60640   0.11710   Biso      1.000     C          -0.11614000000000001          
         C2        1.0000    0.06960   0.04790   0.26300   Biso      1.000     C          0.664381  
         C3        1.0000    0.03330   0.02460   0.13210   Biso      1.000     C          -0.10820199999999999          
         C4        1.0000    0.69070   0.71440   0.23470   Biso      1.000     C          0.6915100000000001  
         C5        1.0000    0.92290   0.70660   0.48150   Biso      1.000     C          0.66286   
         C6        1.0000    0.95970   0.60670   0.49110   Biso      1.000     C          -0.100551           
         C7        1.0000    0.04030   0.39330   0.50890   Biso      1.000     C          -0.101252           
         C8        1.0000    0.07710   0.29340   0.51850   Biso      1.000     C          0.660774  
         C9        1.0000    0.40370   0.39360   0.88290   Biso      1.000     C          -0.115074           
         C10       1.0000    0.30930   0.28560   0.76530   Biso      1.000     C          0.688621  
         C11       1.0000    0.96670   0.97540   0.86790   Biso      1.000     C          -0.109551           
         C12       1.0000    0.93040   0.95210   0.73700   Biso      1.000     C          0.661682  
         Co1       1.0000    0.02067   0.10043   0.61367   Biso      1.000     Co          1.070833  
         Co2       1.0000    0.73423   0.83185   0.48893   Biso      1.000     Co          1.046697  
         Co3       1.0000    0.26577   0.16815   0.51107   Biso      1.000     Co          1.057072  
         Co4       1.0000    0.97933   0.89957   0.38633   Biso      1.000     Co          1.140743  
         H1        1.0000    0.43900   0.70420   0.04680   Biso      1.000     H          -0.029577           
         H2        1.0000    0.89220   0.49170   0.27380   Biso      1.000     H          -0.031651           
         H3        1.0000    0.39530   0.55100   0.17590   Biso      1.000     H          -0.034447000000000005         
         H4        1.0000    0.71970   0.45210   0.41040   Biso      1.000     H          -0.033913           
         H5        1.0000    0.39590   0.55240   0.80690   Biso      1.000     H          -0.03143  
         H6        1.0000    0.10870   0.40530   0.33880   Biso      1.000     H          -0.028536000000000002         
         H7        1.0000    0.77570   0.79010   0.83520   Biso      1.000     H          -0.030507999999999997         
         H8        1.0000    0.83160   0.27330   0.31990   Biso      1.000     H          -0.029069           
         H9        1.0000    0.67580   0.69850   0.98680   Biso      1.000     H          -0.02745  
         H10       1.0000    0.16990   0.66110   0.44240   Biso      1.000     H          -0.032986           
         H11       1.0000    0.93880   0.18280   0.13200   Biso      1.000     H          -0.031721           
         H12       1.0000    0.78080   0.93060   0.06660   Biso      1.000     H          -0.028435000000000002         
         H13       1.0000    0.03940   0.19870   0.94340   Biso      1.000     H          -0.034404000000000004         
         H14       1.0000    0.76080   0.02260   0.88170   Biso      1.000     H          -0.032619           
         H15       1.0000    0.22210   0.46090   0.92350   Biso      1.000     H          -0.034852           
         H16       1.0000    0.32420   0.30150   0.01320   Biso      1.000     H          -0.027783           
         H17       1.0000    0.60410   0.44760   0.19310   Biso      1.000     H          -0.031346           
         H18       1.0000    0.10780   0.50830   0.72620   Biso      1.000     H          -0.031794           
         H19       1.0000    0.23920   0.97740   0.11830   Biso      1.000     H          -0.032586000000000004         
         H20       1.0000    0.96060   0.80130   0.05660   Biso      1.000     H          -0.034127           
         H21       1.0000    0.21920   0.06940   0.93340   Biso      1.000     H          -0.028796           
         H22       1.0000    0.56100   0.29580   0.95320   Biso      1.000     H          -0.029177999999999996         
         H23       1.0000    0.83010   0.33890   0.55760   Biso      1.000     H          -0.03327  
         H24       1.0000    0.06120   0.81720   0.86800   Biso      1.000     H          -0.031708           
         H25       1.0000    0.16840   0.72670   0.68010   Biso      1.000     H          -0.029033999999999997         
         H26       1.0000    0.77790   0.53910   0.07650   Biso      1.000     H          -0.034201           
         H27       1.0000    0.89130   0.59470   0.66120   Biso      1.000     H          -0.028852           
         H28       1.0000    0.28030   0.54790   0.58960   Biso      1.000     H          -0.033872           
         H29       1.0000    0.60470   0.44900   0.82410   Biso      1.000     H          -0.034042           
         H30       1.0000    0.22430   0.20990   0.16480   Biso      1.000     H          -0.030583           
         O1        1.0000    0.13910   0.03500   0.52950   Biso      1.000     O          -0.795959           
         O2        1.0000    0.19460   0.10910   0.33060   Biso      1.000     O          -0.5503   
         O3        1.0000    0.81430   0.75650   0.24950   Biso      1.000     O          -0.537701           
         O4        1.0000    0.63510   0.74700   0.30290   Biso      1.000     O          -0.520941           
         O5        1.0000    0.97110   0.00130   0.28600   Biso      1.000     O          -0.514887           
         O6        1.0000    0.19090   0.29750   0.51450   Biso      1.000     O          -0.510758           
         O7        1.0000    0.98700   0.21190   0.52770   Biso      1.000     O          -0.49832  
         O8        1.0000    0.36490   0.25300   0.69710   Biso      1.000     O          -0.5312979999999999           
         O9        1.0000    0.18570   0.24350   0.75050   Biso      1.000     O          -0.50422  
         O10       1.0000    0.02890   0.99870   0.71400   Biso      1.000     O          -0.481576           
         O11       1.0000    0.80540   0.89090   0.66940   Biso      1.000     O          -0.540977           
         O12       1.0000    0.86090   0.96500   0.47050   Biso      1.000     O          -0.7632140000000001           
         O13       1.0000    0.01300   0.78810   0.47230   Biso      1.000     O          -0.534276           
         O14       1.0000    0.80910   0.70250   0.48550   Biso      1.000     O          -0.515335 