
##########################################################################
#               Crystallographic Information Format file
#               Produced by PyCifRW module
#
#  This is a CIF file.  CIF has been adopted by the International
#  Union of Crystallography as the standard for data archiving and
#  transmission.
#
#  For information on this file format, follow the CIF links at
#  http://www.iucr.org
##########################################################################

data_image0

_cell_length_a                          10.82
_cell_length_b                          11.416
_cell_length_c                          12.432
_cell_angle_alpha                       87.44
_cell_angle_beta                        72.45
_cell_angle_gamma                       70.11
_symmetry_space_group_name_H-M          'P 1'
_symmetry_int_tables_number             1
loop_
  _symmetry_equiv_pos_as_xyz
         'x, y, z' 
loop_
  _atom_site_label
  _atom_site_occupancy
  _atom_site_fract_x
  _atom_site_fract_y
  _atom_site_fract_z
  _atom_site_thermal_displace_type
  _atom_site_B_iso_or_equiv
  _atom_site_type_symbol
  _atom_site_charge
         C1        1.0000    0.07310   0.75790   0.06290   Biso      1.000     C          0.12018699999999999           
         C2        1.0000    0.92690   0.24210   0.93710   Biso      1.000     C          0.12018699999999999           
         C3        1.0000    0.48740   0.90880   0.27680   Biso      1.000     C          0.53825   
         C4        1.0000    0.45780   0.66920   0.04840   Biso      1.000     C          0.663483  
         C5        1.0000    0.45990   0.53770   0.04060   Biso      1.000     C          -0.185038           
         C6        1.0000    0.98950   0.01020   0.34790   Biso      1.000     C          0.6491520000000001  
         C7        1.0000    0.59970   0.10630   0.16860   Biso      1.000     C          0.6840069999999999  
         C8        1.0000    0.94360   0.30090   0.03610   Biso      1.000     C          -0.40328800000000004          
         C9        1.0000    0.39670   0.02430   0.23210   Biso      1.000     C          0.116323  
         C10       1.0000    0.45110   0.12890   0.23850   Biso      1.000     C          -0.399793           
         C11       1.0000    0.04930   0.23640   0.83430   Biso      1.000     C          0.535956  
         C12       1.0000    0.04410   0.97650   0.52650   Biso      1.000     C          -0.169383           
         C13       1.0000    0.92550   0.77790   0.94250   Biso      1.000     C          0.686656  
         C14       1.0000    0.51260   0.09120   0.72320   Biso      1.000     C          0.5382520000000001  
         C15       1.0000    0.54220   0.33080   0.95160   Biso      1.000     C          0.663474  
         C16       1.0000    0.54010   0.46230   0.95940   Biso      1.000     C          -0.184934           
         C17       1.0000    0.01050   0.98980   0.65210   Biso      1.000     C          0.649157  
         C18       1.0000    0.40030   0.89370   0.83140   Biso      1.000     C          0.684006  
         C19       1.0000    0.05640   0.69910   0.96390   Biso      1.000     C          -0.403289           
         C20       1.0000    0.60330   0.97570   0.76790   Biso      1.000     C          0.116323  
         C21       1.0000    0.54890   0.87110   0.76150   Biso      1.000     C          -0.399793           
         C22       1.0000    0.95070   0.76360   0.16570   Biso      1.000     C          0.535946  
         C23       1.0000    0.95590   0.02350   0.47350   Biso      1.000     C          -0.169319           
         C24       1.0000    0.07450   0.22210   0.05750   Biso      1.000     C          0.686656  
         Cd1       1.0000    0.89303   0.04648   0.13271   Biso      1.000     Cd          0.9966729999999999  
         Cd2       1.0000    0.39456   0.13639   0.97917   Biso      1.000     Cd          1.036211  
         Cd3       1.0000    0.23466   0.92872   0.10909   Biso      1.000     Cd          1.039476  
         Cd4       1.0000    0.60544   0.86361   0.02083   Biso      1.000     Cd          1.03621   
         Cd5       1.0000    0.10697   0.95352   0.86729   Biso      1.000     Cd          0.996667  
         Cd6       1.0000    0.76534   0.07128   0.89091   Biso      1.000     Cd          1.039476  
         H1        1.0000    0.60720   0.79620   0.78550   Biso      1.000     H          0.173731  
         H2        1.0000    0.86570   0.06860   0.51550   Biso      1.000     H          0.14169600000000002           
         H3        1.0000    0.84300   0.29750   0.92210   Biso      1.000     H          0.089149  
         H4        1.0000    0.39930   0.51150   0.09840   Biso      1.000     H          0.145452  
         H5        1.0000    0.86600   0.30780   0.10280   Biso      1.000     H          0.170664  
         H6        1.0000    0.55790   0.85500   0.68310   Biso      1.000     H          0.179595  
         H7        1.0000    0.30180   0.04810   0.28290   Biso      1.000     H          0.091427  
         H8        1.0000    0.44210   0.14500   0.31690   Biso      1.000     H          0.179595  
         H9        1.0000    0.39280   0.20380   0.21450   Biso      1.000     H          0.17373   
         H10       1.0000    0.13430   0.93140   0.48450   Biso      1.000     H          0.141701  
         H11       1.0000    0.15700   0.70250   0.07790   Biso      1.000     H          0.089149  
         H12       1.0000    0.60070   0.48850   0.90160   Biso      1.000     H          0.145445  
         H13       1.0000    0.13400   0.69220   0.89720   Biso      1.000     H          0.170664  
         H14       1.0000    0.05410   0.61590   0.98040   Biso      1.000     H          0.17767   
         H15       1.0000    0.94590   0.38410   0.01960   Biso      1.000     H          0.177669  
         H16       1.0000    0.69820   0.95190   0.71710   Biso      1.000     H          0.091427  
         O1        1.0000    0.85330   0.86690   0.19920   Biso      1.000     O          -0.47325  
         O2        1.0000    0.34510   0.96090   0.92320   Biso      1.000     O          -0.644043           
         O3        1.0000    0.41660   0.17400   0.79400   Biso      1.000     O          -0.46385699999999996          
         O4        1.0000    0.64640   0.26570   0.87890   Biso      1.000     O          -0.5533560000000001           
         O5        1.0000    0.52560   0.09840   0.62240   Biso      1.000     O          -0.27970900000000004          
         O6        1.0000    0.88720   0.05350   0.70860   Biso      1.000     O          -0.576236           
         O7        1.0000    0.08660   0.87690   0.04230   Biso      1.000     O          -0.580961           
         O8        1.0000    0.82150   0.74310   0.97470   Biso      1.000     O          -0.515837           
         O9        1.0000    0.94570   0.66650   0.21220   Biso      1.000     O          -0.288401           
         O10       1.0000    0.60430   0.99840   0.87910   Biso      1.000     O          -0.579549           
         O11       1.0000    0.92250   0.87860   0.89500   Biso      1.000     O          -0.5978899999999999           
         O12       1.0000    0.10740   0.93450   0.68800   Biso      1.000     O          -0.46044700000000005          
         O13       1.0000    0.66670   0.15530   0.20690   Biso      1.000     O          -0.490835           
         O14       1.0000    0.35360   0.73430   0.12110   Biso      1.000     O          -0.5533560000000001           
         O15       1.0000    0.14670   0.13310   0.80080   Biso      1.000     O          -0.47325100000000003          
         O16       1.0000    0.39570   0.00160   0.12090   Biso      1.000     O          -0.579549           
         O17       1.0000    0.91340   0.12310   0.95770   Biso      1.000     O          -0.580963           
         O18       1.0000    0.05430   0.33350   0.78780   Biso      1.000     O          -0.288414           
         O19       1.0000    0.17850   0.25690   0.02530   Biso      1.000     O          -0.515836           
         O20       1.0000    0.89260   0.06550   0.31200   Biso      1.000     O          -0.46045200000000003          
         O21       1.0000    0.11280   0.94650   0.29140   Biso      1.000     O          -0.576236           
         O22       1.0000    0.47440   0.90160   0.37760   Biso      1.000     O          -0.279704           
         O23       1.0000    0.58340   0.82600   0.20600   Biso      1.000     O          -0.463859           
         O24       1.0000    0.65490   0.03910   0.07680   Biso      1.000     O          -0.644044           
         O25       1.0000    0.07750   0.12140   0.10500   Biso      1.000     O          -0.597891           
         O26       1.0000    0.45120   0.29460   0.01520   Biso      1.000     O          -0.573946           
         O27       1.0000    0.54880   0.70540   0.98480   Biso      1.000     O          -0.5739479999999999           
         O28       1.0000    0.33330   0.84470   0.79310   Biso      1.000     O          -0.490834 