
##########################################################################
#               Crystallographic Information Format file
#               Produced by PyCifRW module
#
#  This is a CIF file.  CIF has been adopted by the International
#  Union of Crystallography as the standard for data archiving and
#  transmission.
#
#  For information on this file format, follow the CIF links at
#  http://www.iucr.org
##########################################################################

data_image0

_cell_length_a                          8.2
_cell_length_b                          8.2
_cell_length_c                          18.606
_cell_angle_alpha                       90
_cell_angle_beta                        90
_cell_angle_gamma                       120
_symmetry_space_group_name_H-M          'P 1'
_symmetry_int_tables_number             1
loop_
  _symmetry_equiv_pos_as_xyz
         'x, y, z' 
loop_
  _atom_site_label
  _atom_site_occupancy
  _atom_site_fract_x
  _atom_site_fract_y
  _atom_site_fract_z
  _atom_site_thermal_displace_type
  _atom_site_B_iso_or_equiv
  _atom_site_type_symbol
  _atom_site_charge
         Bi1       1.0000    0.00000   0.00000   0.00000   Biso      1.000     Bi          0.7594420000000001  
         Bi2       1.0000    0.00000   0.00000   0.50000   Biso      1.000     Bi          0.7594420000000001  
         C1        1.0000    0.66900   0.67280   0.62070   Biso      1.000     C          0.338467  
         C2        1.0000    0.32720   0.99620   0.62070   Biso      1.000     C          0.338477  
         C3        1.0000    0.33100   0.32720   0.12070   Biso      1.000     C          0.338466  
         C4        1.0000    0.67280   0.00380   0.12070   Biso      1.000     C          0.338476  
         C5        1.0000    0.00380   0.33100   0.87930   Biso      1.000     C          0.338487  
         C6        1.0000    0.32720   0.99620   0.87930   Biso      1.000     C          0.338476  
         C7        1.0000    0.66900   0.67280   0.87930   Biso      1.000     C          0.338467  
         C8        1.0000    0.99620   0.66900   0.12070   Biso      1.000     C          0.338487  
         C9        1.0000    0.99620   0.66900   0.37930   Biso      1.000     C          0.338487  
         C10       1.0000    0.67280   0.00380   0.37930   Biso      1.000     C          0.338477  
         C11       1.0000    0.33100   0.32720   0.37930   Biso      1.000     C          0.338467  
         C12       1.0000    0.00380   0.33100   0.62070   Biso      1.000     C          0.338487  
         N1        1.0000    0.11290   0.67410   0.34370   Biso      1.000     N          -0.591168           
         N2        1.0000    0.67410   0.56120   0.84370   Biso      1.000     N          -0.591132           
         N3        1.0000    0.88710   0.32590   0.65630   Biso      1.000     N          -0.591168           
         N4        1.0000    0.43880   0.11290   0.84370   Biso      1.000     N          -0.591148           
         N5        1.0000    0.56120   0.88710   0.15630   Biso      1.000     N          -0.591148           
         N6        1.0000    0.56120   0.88710   0.34370   Biso      1.000     N          -0.5911489999999999           
         N7        1.0000    0.88710   0.32590   0.84370   Biso      1.000     N          -0.591169           
         N8        1.0000    0.32590   0.43880   0.15630   Biso      1.000     N          -0.591132           
         N9        1.0000    0.67410   0.56120   0.65630   Biso      1.000     N          -0.591132           
         N10       1.0000    0.32590   0.43880   0.34370   Biso      1.000     N          -0.591132           
         N11       1.0000    0.43880   0.11290   0.65630   Biso      1.000     N          -0.5911489999999999           
         N12       1.0000    0.11290   0.67410   0.15630   Biso      1.000     N          -0.591169           
         Nd1       1.0000    0.66667   0.33333   0.75000   Biso      1.000     Nd          2.07747   
         Nd2       1.0000    0.33333   0.66667   0.25000   Biso      1.000     Nd          2.07747   
         S1        1.0000    0.34780   0.16840   0.07160   Biso      1.000     S          -0.22014899999999998          
         S2        1.0000    0.16840   0.82060   0.57160   Biso      1.000     S          -0.220146           
         S3        1.0000    0.83160   0.17940   0.07160   Biso      1.000     S          -0.220146           
         S4        1.0000    0.65220   0.83160   0.57160   Biso      1.000     S          -0.22015  
         S5        1.0000    0.17940   0.34780   0.92840   Biso      1.000     S          -0.22014099999999998          
         S6        1.0000    0.82060   0.65220   0.07160   Biso      1.000     S          -0.22014099999999998          
         S7        1.0000    0.16840   0.82060   0.92840   Biso      1.000     S          -0.220146           
         S8        1.0000    0.65220   0.83160   0.92840   Biso      1.000     S          -0.22014899999999998          
         S9        1.0000    0.82060   0.65220   0.42840   Biso      1.000     S          -0.22014099999999998          
         S10       1.0000    0.83160   0.17940   0.42840   Biso      1.000     S          -0.220146           
         S11       1.0000    0.17940   0.34780   0.57160   Biso      1.000     S          -0.22014099999999998          
         S12       1.0000    0.34780   0.16840   0.42840   Biso      1.000     S          -0.22015 