
##########################################################################
#               Crystallographic Information Format file
#               Produced by PyCifRW module
#
#  This is a CIF file.  CIF has been adopted by the International
#  Union of Crystallography as the standard for data archiving and
#  transmission.
#
#  For information on this file format, follow the CIF links at
#  http://www.iucr.org
##########################################################################

data_image0

_cell_length_a                          8.2508
_cell_length_b                          8.2508
_cell_length_c                          18.745
_cell_angle_alpha                       90
_cell_angle_beta                        90
_cell_angle_gamma                       120
_symmetry_space_group_name_H-M          'P 1'
_symmetry_int_tables_number             1
loop_
  _symmetry_equiv_pos_as_xyz
         'x, y, z' 
loop_
  _atom_site_label
  _atom_site_occupancy
  _atom_site_fract_x
  _atom_site_fract_y
  _atom_site_fract_z
  _atom_site_thermal_displace_type
  _atom_site_B_iso_or_equiv
  _atom_site_type_symbol
  _atom_site_charge
         Bi1       1.0000    0.00000   0.00000   0.00000   Biso      1.000     Bi          0.758605  
         Bi2       1.0000    0.00000   0.00000   0.50000   Biso      1.000     Bi          0.758606  
         C1        1.0000    0.66980   0.67640   0.61950   Biso      1.000     C          0.329598  
         C2        1.0000    0.33020   0.32360   0.38050   Biso      1.000     C          0.329596  
         C3        1.0000    0.67640   0.00660   0.38050   Biso      1.000     C          0.329592  
         C4        1.0000    0.99340   0.66980   0.11950   Biso      1.000     C          0.32959499999999997           
         C5        1.0000    0.67640   0.00660   0.11950   Biso      1.000     C          0.329594  
         C6        1.0000    0.99340   0.66980   0.38050   Biso      1.000     C          0.32959   
         C7        1.0000    0.33020   0.32360   0.11950   Biso      1.000     C          0.329597  
         C8        1.0000    0.00660   0.33020   0.61950   Biso      1.000     C          0.329597  
         C9        1.0000    0.66980   0.67640   0.88050   Biso      1.000     C          0.329598  
         C10       1.0000    0.32360   0.99340   0.61950   Biso      1.000     C          0.329596  
         C11       1.0000    0.32360   0.99340   0.88050   Biso      1.000     C          0.32959499999999997           
         C12       1.0000    0.00660   0.33020   0.88050   Biso      1.000     C          0.32959499999999997           
         La1       1.0000    0.33333   0.66667   0.25000   Biso      1.000     La          1.954294  
         La2       1.0000    0.66667   0.33333   0.75000   Biso      1.000     La          1.9542950000000001  
         N1        1.0000    0.43310   0.10740   0.84520   Biso      1.000     N          -0.554192           
         N2        1.0000    0.89260   0.32570   0.84520   Biso      1.000     N          -0.554181           
         N3        1.0000    0.32570   0.43310   0.34520   Biso      1.000     N          -0.554193           
         N4        1.0000    0.67430   0.56690   0.65480   Biso      1.000     N          -0.554193           
         N5        1.0000    0.10740   0.67430   0.15480   Biso      1.000     N          -0.554181           
         N6        1.0000    0.67430   0.56690   0.84520   Biso      1.000     N          -0.554193           
         N7        1.0000    0.43310   0.10740   0.65480   Biso      1.000     N          -0.55419  
         N8        1.0000    0.56690   0.89260   0.34520   Biso      1.000     N          -0.55419  
         N9        1.0000    0.89260   0.32570   0.65480   Biso      1.000     N          -0.554181           
         N10       1.0000    0.56690   0.89260   0.15480   Biso      1.000     N          -0.554191           
         N11       1.0000    0.10740   0.67430   0.34520   Biso      1.000     N          -0.554179           
         N12       1.0000    0.32570   0.43310   0.15480   Biso      1.000     N          -0.554193           
         S1        1.0000    0.83700   0.18240   0.42850   Biso      1.000     S          -0.227556           
         S2        1.0000    0.81760   0.65460   0.07150   Biso      1.000     S          -0.22755300000000003          
         S3        1.0000    0.81760   0.65460   0.42850   Biso      1.000     S          -0.22755  
         S4        1.0000    0.34540   0.16300   0.07150   Biso      1.000     S          -0.227562           
         S5        1.0000    0.18240   0.34540   0.92850   Biso      1.000     S          -0.22755300000000003          
         S6        1.0000    0.65460   0.83700   0.92850   Biso      1.000     S          -0.227564           
         S7        1.0000    0.18240   0.34540   0.57150   Biso      1.000     S          -0.227556           
         S8        1.0000    0.16300   0.81760   0.57150   Biso      1.000     S          -0.227559           
         S9        1.0000    0.16300   0.81760   0.92850   Biso      1.000     S          -0.22755799999999998          
         S10       1.0000    0.65460   0.83700   0.57150   Biso      1.000     S          -0.227564           
         S11       1.0000    0.83700   0.18240   0.07150   Biso      1.000     S          -0.227555           
         S12       1.0000    0.34540   0.16300   0.42850   Biso      1.000     S          -0.227561 