
##########################################################################
#               Crystallographic Information Format file
#               Produced by PyCifRW module
#
#  This is a CIF file.  CIF has been adopted by the International
#  Union of Crystallography as the standard for data archiving and
#  transmission.
#
#  For information on this file format, follow the CIF links at
#  http://www.iucr.org
##########################################################################

data_image0

_cell_length_a                          24.0448
_cell_length_b                          5.2432
_cell_length_c                          16.9833
_cell_angle_alpha                       90
_cell_angle_beta                        103.366
_cell_angle_gamma                       90
_symmetry_space_group_name_H-M          'P 1'
_symmetry_int_tables_number             1
loop_
  _symmetry_equiv_pos_as_xyz
         'x, y, z' 
loop_
  _atom_site_label
  _atom_site_occupancy
  _atom_site_fract_x
  _atom_site_fract_y
  _atom_site_fract_z
  _atom_site_thermal_displace_type
  _atom_site_B_iso_or_equiv
  _atom_site_type_symbol
  _atom_site_charge
         C1        1.0000    0.58210   0.17300   0.55600   Biso      1.000     C          -0.034343           
         C2        1.0000    0.99910   0.96000   0.77620   Biso      1.000     C          -0.391567           
         C3        1.0000    0.88600   0.63800   0.58950   Biso      1.000     C          -0.013257           
         C4        1.0000    0.64860   0.42800   0.17270   Biso      1.000     C          -0.409919           
         C5        1.0000    0.69110   0.96800   0.70200   Biso      1.000     C          -0.273431           
         C6        1.0000    0.92840   0.78600   0.36550   Biso      1.000     C          0.494755  
         C7        1.0000    0.00150   0.97600   0.86680   Biso      1.000     C          0.703899  
         C8        1.0000    0.55140   0.07500   0.76230   Biso      1.000     C          0.039822  
         C9        1.0000    0.95270   0.62700   0.24310   Biso      1.000     C          0.043231  
         C10       1.0000    0.50530   0.92600   0.87150   Biso      1.000     C          0.703196  
         C11       1.0000    0.63090   0.42300   0.08050   Biso      1.000     C          0.69962   
         C12       1.0000    0.33880   0.66600   0.78480   Biso      1.000     C          0.063607  
         C13       1.0000    0.99850   0.47600   0.13320   Biso      1.000     C          0.703899  
         C14       1.0000    0.89550   0.57800   0.18400   Biso      1.000     C          0.582734  
         C15       1.0000    0.49570   0.40600   0.21920   Biso      1.000     C          -0.395407           
         C16       1.0000    0.57450   0.23200   0.63900   Biso      1.000     C          0.498705  
         C17       1.0000    0.36910   0.92300   0.91950   Biso      1.000     C          0.69962   
         C18       1.0000    0.00090   0.46000   0.22380   Biso      1.000     C          -0.391568           
         C19       1.0000    0.44860   0.57500   0.23770   Biso      1.000     C          0.039822  
         C20       1.0000    0.61500   0.03300   0.32190   Biso      1.000     C          0.471676  
         C21       1.0000    0.42550   0.73200   0.36100   Biso      1.000     C          0.498705  
         C22       1.0000    0.04730   0.12700   0.75690   Biso      1.000     C          0.043231  
         C23       1.0000    0.85330   0.97800   0.83400   Biso      1.000     C          -0.408578           
         C24       1.0000    0.72230   0.07400   0.21410   Biso      1.000     C          0.561947  
         C25       1.0000    0.55980   0.96700   0.50940   Biso      1.000     C          -0.115492           
         C26       1.0000    0.91650   0.72400   0.44460   Biso      1.000     C          -0.044293           
         C27       1.0000    0.60840   0.02200   0.82220   Biso      1.000     C          0.600402  
         C28       1.0000    0.07160   0.28600   0.63450   Biso      1.000     C          0.494754  
         C29       1.0000    0.41790   0.67300   0.44400   Biso      1.000     C          -0.034344           
         C30       1.0000    0.35140   0.92800   0.82730   Biso      1.000     C          -0.409918           
         C31       1.0000    0.50430   0.90600   0.78080   Biso      1.000     C          -0.395407           
         C32       1.0000    0.60550   0.08700   0.40470   Biso      1.000     C          -0.017512           
         C33       1.0000    0.66120   0.16600   0.21520   Biso      1.000     C          0.063608  
         C34       1.0000    0.87900   0.89200   0.47150   Biso      1.000     C          -0.092499           
         C35       1.0000    0.87130   0.96200   0.92510   Biso      1.000     C          0.696557  
         C36       1.0000    0.84010   0.73300   0.78610   Biso      1.000     C          0.052001  
         C37       1.0000    0.93810   0.51900   0.49120   Biso      1.000     C          -0.11074  
         C38       1.0000    0.39160   0.52200   0.17780   Biso      1.000     C          0.600402  
         C39       1.0000    0.30890   0.46800   0.29800   Biso      1.000     C          -0.273431           
         C40       1.0000    0.77590   0.66000   0.78150   Biso      1.000     C          0.545606  
         C41       1.0000    0.22410   0.16000   0.21850   Biso      1.000     C          0.545606  
         C42       1.0000    0.13040   0.07200   0.33120   Biso      1.000     C          0.469405  
         C43       1.0000    0.86960   0.57200   0.66880   Biso      1.000     C          0.469405  
         C44       1.0000    0.13630   0.34900   0.45550   Biso      1.000     C          -0.115769           
         C45       1.0000    0.07680   0.97100   0.43720   Biso      1.000     C          -0.106942           
         C46       1.0000    0.86370   0.84900   0.54450   Biso      1.000     C          -0.115767           
         C47       1.0000    0.38430   0.84600   0.47640   Biso      1.000     C          -0.103409           
         C48       1.0000    0.37460   0.80100   0.55050   Biso      1.000     C          -0.117357           
         C49       1.0000    0.92320   0.47100   0.56280   Biso      1.000     C          -0.106935           
         C50       1.0000    0.43010   0.42700   0.56660   Biso      1.000     C          -0.094372           
         C51       1.0000    0.06190   0.01900   0.50880   Biso      1.000     C          -0.11074  
         C52       1.0000    0.10450   0.07800   0.81600   Biso      1.000     C          0.582734  
         C53       1.0000    0.49470   0.42600   0.12850   Biso      1.000     C          0.703196  
         C54       1.0000    0.61570   0.34600   0.52360   Biso      1.000     C          -0.103409           
         C55       1.0000    0.12100   0.39200   0.52850   Biso      1.000     C          -0.092499           
         C56       1.0000    0.39450   0.58700   0.59530   Biso      1.000     C          -0.017504           
         C57       1.0000    0.27770   0.57400   0.78590   Biso      1.000     C          0.561948  
         C58       1.0000    0.08350   0.22400   0.55540   Biso      1.000     C          -0.044286           
         C59       1.0000    0.15990   0.23300   0.21390   Biso      1.000     C          0.052001  
         C60       1.0000    0.38500   0.53300   0.67810   Biso      1.000     C          0.471675  
         C61       1.0000    0.11400   0.13800   0.41050   Biso      1.000     C          -0.013256           
         C62       1.0000    0.62540   0.30100   0.44950   Biso      1.000     C          -0.117355           
         C63       1.0000    0.12870   0.46200   0.07490   Biso      1.000     C          0.696556  
         C64       1.0000    0.14670   0.47800   0.16600   Biso      1.000     C          -0.408577           
         C65       1.0000    0.56990   0.92700   0.43340   Biso      1.000     C          -0.094364           
         C66       1.0000    0.44020   0.46700   0.49060   Biso      1.000     C          -0.11549  
         H1        1.0000    0.25810   0.92780   0.91440   Biso      1.000     H          0.391472  
         H2        1.0000    0.28830   0.61760   0.11250   Biso      1.000     H          0.396044  
         H3        1.0000    0.23640   0.42890   0.07940   Biso      1.000     H          0.379384  
         H4        1.0000    0.04420   0.94460   0.65040   Biso      1.000     H          0.306069  
         H5        1.0000    0.15230   0.41270   0.31610   Biso      1.000     H          0.304404  
         H6        1.0000    0.32670   0.79080   0.67040   Biso      1.000     H          0.290737  
         H7        1.0000    0.45050   0.38970   0.34450   Biso      1.000     H          0.309764  
         H8        1.0000    0.71150   0.86350   0.67040   Biso      1.000     H          0.161922  
         H9        1.0000    0.38210   0.01180   0.80680   Biso      1.000     H          0.149473  
         H10       1.0000    0.35020   0.44980   0.31890   Biso      1.000     H          0.050285  
         H11       1.0000    0.29890   0.41160   0.24100   Biso      1.000     H          0.069985  
         H12       1.0000    0.28290   0.71190   0.34290   Biso      1.000     H          0.377454  
         H13       1.0000    0.16140   0.46200   0.43700   Biso      1.000     H          0.12295   
         H14       1.0000    0.06180   0.82650   0.40580   Biso      1.000     H          0.110039  
         H15       1.0000    0.36860   0.99260   0.44650   Biso      1.000     H          0.112715  
         H16       1.0000    0.35320   0.92280   0.57270   Biso      1.000     H          0.109282  
         H17       1.0000    0.44800   0.28790   0.59880   Biso      1.000     H          0.109023  
         H18       1.0000    0.03620   0.90660   0.52650   Biso      1.000     H          0.10469   
         H19       1.0000    0.13610   0.53560   0.56060   Biso      1.000     H          0.110867  
         H20       1.0000    0.13490   0.09520   0.18420   Biso      1.000     H          0.085843  
         H21       1.0000    0.18120   0.58770   0.17990   Biso      1.000     H          0.152712  
         H22       1.0000    0.11610   0.56780   0.18500   Biso      1.000     H          0.148416  
         H23       1.0000    0.46320   0.34860   0.47000   Biso      1.000     H          0.104573  
         H24       1.0000    0.53340   0.46140   0.25170   Biso      1.000     H          0.151425  
         H25       1.0000    0.48950   0.22670   0.23330   Biso      1.000     H          0.125687  
         H26       1.0000    0.36670   0.53910   0.81550   Biso      1.000     H          0.090368  
         H27       1.0000    0.00380   0.78130   0.76060   Biso      1.000     H          0.129196  
         H28       1.0000    0.96150   0.02200   0.74500   Biso      1.000     H          0.151992  
         H29       1.0000    0.45920   0.75740   0.23130   Biso      1.000     H          0.072337  
         H30       1.0000    0.31670   0.03480   0.81110   Biso      1.000     H          0.144402  
         H31       1.0000    0.03690   0.30910   0.76300   Biso      1.000     H          0.06867   
         H32       1.0000    0.20800   0.12980   0.88510   Biso      1.000     H          0.392782  
         H33       1.0000    0.28850   0.36350   0.32960   Biso      1.000     H          0.161922  
         H34       1.0000    0.51050   0.72670   0.76670   Biso      1.000     H          0.125687  
         H35       1.0000    0.61790   0.51180   0.19320   Biso      1.000     H          0.149473  
         H36       1.0000    0.68330   0.53480   0.18890   Biso      1.000     H          0.144402  
         H37       1.0000    0.83860   0.96200   0.56300   Biso      1.000     H          0.12295   
         H38       1.0000    0.54080   0.25740   0.76870   Biso      1.000     H          0.072337  
         H39       1.0000    0.03850   0.52200   0.25500   Biso      1.000     H          0.151992  
         H40       1.0000    0.99620   0.28130   0.23940   Biso      1.000     H          0.129196  
         H41       1.0000    0.63330   0.03910   0.18450   Biso      1.000     H          0.090368  
         H42       1.0000    0.64980   0.94980   0.68110   Biso      1.000     H          0.050285  
         H43       1.0000    0.46660   0.96140   0.74830   Biso      1.000     H          0.151425  
         H44       1.0000    0.53680   0.84860   0.53000   Biso      1.000     H          0.104573  
         H45       1.0000    0.93820   0.32650   0.59420   Biso      1.000     H          0.110038  
         H46       1.0000    0.63140   0.49260   0.55350   Biso      1.000     H          0.112715  
         H47       1.0000    0.64680   0.42280   0.42730   Biso      1.000     H          0.109281  
         H48       1.0000    0.55200   0.78790   0.40120   Biso      1.000     H          0.109023  
         H49       1.0000    0.96380   0.40660   0.47350   Biso      1.000     H          0.10469   
         H50       1.0000    0.88390   0.06780   0.81500   Biso      1.000     H          0.148416  
         H51       1.0000    0.81880   0.08770   0.82010   Biso      1.000     H          0.152712  
         H52       1.0000    0.86390   0.03560   0.43940   Biso      1.000     H          0.110867  
         H53       1.0000    0.84770   0.91270   0.68390   Biso      1.000     H          0.304405  
         H54       1.0000    0.96310   0.80910   0.23700   Biso      1.000     H          0.06867   
         H55       1.0000    0.67330   0.29080   0.32960   Biso      1.000     H          0.290738  
         H56       1.0000    0.79200   0.62980   0.11490   Biso      1.000     H          0.392782  
         H57       1.0000    0.74190   0.42780   0.08560   Biso      1.000     H          0.391472  
         H58       1.0000    0.71170   0.11760   0.88750   Biso      1.000     H          0.396044  
         H59       1.0000    0.76360   0.92890   0.92060   Biso      1.000     H          0.379384  
         H60       1.0000    0.95580   0.44460   0.34960   Biso      1.000     H          0.306069  
         H61       1.0000    0.86510   0.59520   0.81580   Biso      1.000     H          0.085843  
         H62       1.0000    0.54950   0.88970   0.65550   Biso      1.000     H          0.309764  
         H63       1.0000    0.70110   0.91160   0.75900   Biso      1.000     H          0.069985  
         H64       1.0000    0.71710   0.21190   0.65710   Biso      1.000     H          0.377454  
         N1        1.0000    0.94710   0.59200   0.32540   Biso      1.000     N          -0.3973   
         N2        1.0000    0.14780   0.26200   0.29290   Biso      1.000     N          -0.389386           
         N3        1.0000    0.34710   0.68100   0.70420   Biso      1.000     N          -0.389073           
         N4        1.0000    0.55730   0.03900   0.67920   Biso      1.000     N          -0.390958           
         N5        1.0000    0.05290   0.09200   0.67460   Biso      1.000     N          -0.3973   
         N6        1.0000    0.85220   0.76200   0.70710   Biso      1.000     N          -0.389387           
         N7        1.0000    0.65290   0.18100   0.29580   Biso      1.000     N          -0.389073           
         N8        1.0000    0.44270   0.53900   0.32080   Biso      1.000     N          -0.390958           
         Na1       1.0000    0.66480   0.53420   0.76950   Biso      1.000     Na          0.882164  
         Na2       1.0000    0.69430   0.91550   0.03440   Biso      1.000     Na          0.880224  
         Na3       1.0000    0.58330   0.46690   0.91610   Biso      1.000     Na          0.875095  
         Na4       1.0000    0.80617   0.43370   0.96610   Biso      1.000     Na          0.883897  
         Na5       1.0000    0.45303   0.42630   0.95920   Biso      1.000     Na          0.886325  
         Na6       1.0000    0.91880   0.00930   0.09150   Biso      1.000     Na          0.87602   
         Na7       1.0000    0.83700   0.10470   0.23390   Biso      1.000     Na          0.862478  
         Na8       1.0000    0.04619   0.96890   0.03590   Biso      1.000     Na          0.882827  
         Na9       1.0000    0.95381   0.46890   0.96410   Biso      1.000     Na          0.882827  
         Na10      1.0000    0.08120   0.50930   0.90850   Biso      1.000     Na          0.87602   
         Na11      1.0000    0.54697   0.92630   0.04080   Biso      1.000     Na          0.886325  
         Na12      1.0000    0.19383   0.93370   0.03390   Biso      1.000     Na          0.883898  
         Na13      1.0000    0.41670   0.96690   0.08390   Biso      1.000     Na          0.875095  
         Na14      1.0000    0.30570   0.41550   0.96560   Biso      1.000     Na          0.880225  
         Na15      1.0000    0.33520   0.03420   0.23050   Biso      1.000     Na          0.882164  
         Na16      1.0000    0.16300   0.60470   0.76610   Biso      1.000     Na          0.862478  
         O1        1.0000    0.74120   0.69300   0.70920   Biso      1.000     O          -0.219387           
         O2        1.0000    0.11830   0.67060   0.03750   Biso      1.000     O          -0.783426           
         O3        1.0000    0.74160   0.07260   0.93610   Biso      1.000     O          -0.862471           
         O4        1.0000    0.88560   0.34950   0.15870   Biso      1.000     O          -0.701341           
         O5        1.0000    0.25880   0.19300   0.29080   Biso      1.000     O          -0.219387           
         O6        1.0000    0.00320   0.27440   0.09610   Biso      1.000     O          -0.743587           
         O7        1.0000    0.62340   0.21840   0.04330   Biso      1.000     O          -0.723981           
         O8        1.0000    0.63920   0.21900   0.84570   Biso      1.000     O          -0.689812           
         O9        1.0000    0.86190   0.75920   0.16250   Biso      1.000     O          -0.65646  
         O10       1.0000    0.99090   0.69160   0.10080   Biso      1.000     O          -0.737789           
         O11       1.0000    0.49900   0.23150   0.09010   Biso      1.000     O          -0.73724  
         O12       1.0000    0.62220   0.63910   0.04720   Biso      1.000     O          -0.779751           
         O13       1.0000    0.87540   0.75010   0.95980   Biso      1.000     O          -0.726755           
         O14       1.0000    0.50100   0.73150   0.90990   Biso      1.000     O          -0.73724  
         O15       1.0000    0.88170   0.17060   0.96250   Biso      1.000     O          -0.783426           
         O16       1.0000    0.29550   0.68900   0.30130   Biso      1.000     O          -0.410728           
         O17       1.0000    0.24090   0.94500   0.26600   Biso      1.000     O          -0.294187           
         O18       1.0000    0.76170   0.57530   0.06790   Biso      1.000     O          -0.866929           
         O19       1.0000    0.51170   0.14930   0.90120   Biso      1.000     O          -0.745793           
         O20       1.0000    0.74170   0.12810   0.15320   Biso      1.000     O          -0.693256           
         O21       1.0000    0.58070   0.45220   0.66510   Biso      1.000     O          -0.567719           
         O22       1.0000    0.25080   0.43700   0.72790   Biso      1.000     O          -0.652077           
         O23       1.0000    0.87110   0.34800   0.69370   Biso      1.000     O          -0.53117  
         O24       1.0000    0.38010   0.30110   0.15510   Biso      1.000     O          -0.669812           
         O25       1.0000    0.07790   0.50410   0.66250   Biso      1.000     O          -0.57348  
         O26       1.0000    0.23900   0.12480   0.15600   Biso      1.000     O          -0.773766           
         O27       1.0000    0.41930   0.95220   0.33490   Biso      1.000     O          -0.567719           
         O28       1.0000    0.25830   0.62810   0.84680   Biso      1.000     O          -0.693256           
         O29       1.0000    0.48830   0.64930   0.09880   Biso      1.000     O          -0.745792           
         O30       1.0000    0.70450   0.18900   0.69870   Biso      1.000     O          -0.410728           
         O31       1.0000    0.25840   0.57260   0.06390   Biso      1.000     O          -0.862471           
         O32       1.0000    0.11440   0.84950   0.84130   Biso      1.000     O          -0.701341           
         O33       1.0000    0.59020   0.85800   0.28110   Biso      1.000     O          -0.488653           
         O34       1.0000    0.99680   0.77440   0.90390   Biso      1.000     O          -0.743587           
         O35       1.0000    0.37660   0.71840   0.95670   Biso      1.000     O          -0.723981           
         O36       1.0000    0.36080   0.71900   0.15430   Biso      1.000     O          -0.689812           
         O37       1.0000    0.23830   0.07530   0.93210   Biso      1.000     O          -0.866929           
         O38       1.0000    0.12890   0.84800   0.30630   Biso      1.000     O          -0.53117  
         O39       1.0000    0.00910   0.19160   0.89920   Biso      1.000     O          -0.737789           
         O40       1.0000    0.13810   0.25920   0.83750   Biso      1.000     O          -0.65646  
         O41       1.0000    0.37780   0.13910   0.95280   Biso      1.000     O          -0.779751           
         O42       1.0000    0.12460   0.25010   0.04020   Biso      1.000     O          -0.726755           
         O43       1.0000    0.74920   0.93700   0.27210   Biso      1.000     O          -0.652077           
         O44       1.0000    0.61990   0.80110   0.84490   Biso      1.000     O          -0.669812           
         O45       1.0000    0.92210   0.00410   0.33750   Biso      1.000     O          -0.57348  
         O46       1.0000    0.76100   0.62480   0.84400   Biso      1.000     O          -0.773766           
         O47       1.0000    0.40980   0.35800   0.71890   Biso      1.000     O          -0.488653           
         O48       1.0000    0.75910   0.44500   0.73400   Biso      1.000     O          -0.294187 