
##########################################################################
#               Crystallographic Information Format file
#               Produced by PyCifRW module
#
#  This is a CIF file.  CIF has been adopted by the International
#  Union of Crystallography as the standard for data archiving and
#  transmission.
#
#  For information on this file format, follow the CIF links at
#  http://www.iucr.org
##########################################################################

data_image0

_cell_length_a                          12.6804
_cell_length_b                          13.844
_cell_length_c                          27.865
_cell_angle_alpha                       104.246
_cell_angle_beta                        97.317
_cell_angle_gamma                       94.456
_symmetry_space_group_name_H-M          'P 1'
_symmetry_int_tables_number             1
loop_
  _symmetry_equiv_pos_as_xyz
         'x, y, z' 
loop_
  _atom_site_label
  _atom_site_occupancy
  _atom_site_fract_x
  _atom_site_fract_y
  _atom_site_fract_z
  _atom_site_thermal_displace_type
  _atom_site_B_iso_or_equiv
  _atom_site_type_symbol
  _atom_site_charge
         C1        1.0000    0.85680   0.12440   0.51474   Biso      1.000     C          0.650802  
         C2        1.0000    0.18670   0.28770   0.95339   Biso      1.000     C          -0.01379  
         C3        1.0000    0.96350   0.36360   0.70014   Biso      1.000     C          -0.146847           
         C4        1.0000    0.84800   0.49470   0.75868   Biso      1.000     C          -0.095632           
         C5        1.0000    0.86910   0.38930   0.67782   Biso      1.000     C          0.073759  
         C6        1.0000    0.64230   0.41260   0.52144   Biso      1.000     C          0.692228  
         C7        1.0000    0.28370   0.78410   0.08884   Biso      1.000     C          -0.124904           
         C8        1.0000    0.27100   0.68420   0.14825   Biso      1.000     C          -0.135798           
         C9        1.0000    0.03920   0.14480   0.35201   Biso      1.000     C          -0.14099  
         C10       1.0000    0.39500   0.83290   0.16932   Biso      1.000     C          -0.151181           
         C11       1.0000    0.88390   0.80920   0.20865   Biso      1.000     C          -0.142697           
         C12       1.0000    0.41390   0.93860   0.10923   Biso      1.000     C          0.585062  
         C13       1.0000    0.81940   0.86570   0.28727   Biso      1.000     C          -0.01381  
         C14       1.0000    0.20760   0.20350   0.40530   Biso      1.000     C          -0.124766           
         C15       1.0000    0.83480   0.88450   0.34303   Biso      1.000     C          0.58931   
         C16       1.0000    0.47050   0.77920   0.31820   Biso      1.000     C          -0.084731           
         C17       1.0000    0.23930   0.25490   0.37182   Biso      1.000     C          -0.009958           
         C18       1.0000    0.40480   0.62710   0.23150   Biso      1.000     C          -0.154245           
         C19       1.0000    0.75180   0.77040   0.02302   Biso      1.000     C          -0.122609           
         C20       1.0000    0.36210   0.85110   0.12272   Biso      1.000     C          -0.009729           
         C21       1.0000    0.81230   0.45400   0.70758   Biso      1.000     C          -0.145824           
         C22       1.0000    0.39520   0.72660   0.23048   Biso      1.000     C          0.078111  
         C23       1.0000    0.74920   0.26780   0.52079   Biso      1.000     C          -0.107873           
         C24       1.0000    0.48020   0.34810   0.63349   Biso      1.000     C          0.618197  
         C25       1.0000    0.83060   0.74680   0.67143   Biso      1.000     C          -0.152191           
         C26       1.0000    0.16750   0.78470   0.80373   Biso      1.000     C          -0.022651           
         C27       1.0000    0.10180   0.16980   0.73935   Biso      1.000     C          -0.100278           
         C28       1.0000    0.57100   0.19700   0.72580   Biso      1.000     C          -0.156863           
         C29       1.0000    0.21230   0.17690   0.81755   Biso      1.000     C          0.074647  
         C30       1.0000    0.25920   0.77350   0.84151   Biso      1.000     C          0.609838  
         C31       1.0000    0.09370   0.70340   0.77920   Biso      1.000     C          -0.092524           
         C32       1.0000    0.84860   0.37150   0.93638   Biso      1.000     C          0.679342  
         C33       1.0000    0.92970   0.90050   0.56519   Biso      1.000     C          0.671824  
         C34       1.0000    0.36810   0.09660   0.97673   Biso      1.000     C          0.712524  
         C35       1.0000    0.97960   0.50690   0.83578   Biso      1.000     C          0.597391  
         C36       1.0000    0.75390   0.39350   0.59849   Biso      1.000     C          -0.137037           
         C37       1.0000    0.94170   0.46690   0.78065   Biso      1.000     C          -0.014317           
         C38       1.0000    0.65270   0.68400   0.61726   Biso      1.000     C          0.592777  
         C39       1.0000    0.12590   0.36380   0.98332   Biso      1.000     C          0.676352  
         C40       1.0000    0.99840   0.40210   0.75122   Biso      1.000     C          -0.092837           
         C41       1.0000    0.82310   0.21890   0.54453   Biso      1.000     C          -0.014004           
         C42       1.0000    0.71590   0.35560   0.54764   Biso      1.000     C          -0.023743           
         C43       1.0000    0.86400   0.25850   0.59532   Biso      1.000     C          -0.145994           
         C44       1.0000    0.82910   0.34590   0.62328   Biso      1.000     C          0.07894   
         C45       1.0000    0.27790   0.12040   0.73860   Biso      1.000     C          -0.093764           
         C46       1.0000    0.99090   0.20100   0.27317   Biso      1.000     C          0.075785  
         C47       1.0000    0.69880   0.84370   0.05061   Biso      1.000     C          -0.036487           
         C48       1.0000    0.02040   0.49310   0.16422   Biso      1.000     C          0.597391  
         C49       1.0000    0.24610   0.60650   0.40151   Biso      1.000     C          -0.137036           
         C50       1.0000    0.05830   0.53310   0.21935   Biso      1.000     C          -0.014318           
         C51       1.0000    0.34730   0.31600   0.38274   Biso      1.000     C          0.592777  
         C52       1.0000    0.87410   0.63620   0.01668   Biso      1.000     C          0.676351  
         C53       1.0000    0.00160   0.59790   0.24878   Biso      1.000     C          -0.092837           
         C54       1.0000    0.17690   0.78110   0.45547   Biso      1.000     C          -0.014005           
         C55       1.0000    0.28410   0.64440   0.45236   Biso      1.000     C          -0.023744           
         C56       1.0000    0.13600   0.74150   0.40468   Biso      1.000     C          -0.145994           
         C57       1.0000    0.51980   0.65190   0.36651   Biso      1.000     C          0.618197  
         C58       1.0000    0.14320   0.87560   0.48526   Biso      1.000     C          0.650802  
         C59       1.0000    0.17090   0.65410   0.37672   Biso      1.000     C          0.07894   
         C60       1.0000    0.25080   0.73220   0.47921   Biso      1.000     C          -0.107872           
         C61       1.0000    0.18770   0.54600   0.29242   Biso      1.000     C          -0.145825           
         C62       1.0000    0.81330   0.71230   0.04661   Biso      1.000     C          -0.013788           
         C63       1.0000    0.03650   0.63640   0.29986   Biso      1.000     C          -0.146848           
         C64       1.0000    0.15200   0.50530   0.24132   Biso      1.000     C          -0.095631           
         C65       1.0000    0.13090   0.61070   0.32218   Biso      1.000     C          0.073761  
         C66       1.0000    0.35770   0.58740   0.47856   Biso      1.000     C          0.692228  
         C67       1.0000    0.63190   0.90340   0.02327   Biso      1.000     C          0.712525  
         C68       1.0000    0.70720   0.85810   0.20964   Biso      1.000     C          -0.142993           
         C69       1.0000    0.07030   0.09950   0.43481   Biso      1.000     C          0.671824  
         C70       1.0000    0.98490   0.29000   0.25920   Biso      1.000     C          -0.156868           
         C71       1.0000    0.06870   0.19770   0.31812   Biso      1.000     C          0.070326  
         C72       1.0000    0.23600   0.70120   0.10119   Biso      1.000     C          -0.028948           
         C73       1.0000    0.44620   0.60440   0.27510   Biso      1.000     C          -0.095969           
         C74       1.0000    0.91980   0.11710   0.24700   Biso      1.000     C          -0.153937           
         C75       1.0000    0.82250   0.72690   0.09837   Biso      1.000     C          -0.140182           
         C76       1.0000    0.47900   0.67950   0.31938   Biso      1.000     C          -0.025362           
         C77       1.0000    0.35170   0.74900   0.18240   Biso      1.000     C          0.075465  
         C78       1.0000    0.84130   0.12410   0.20895   Biso      1.000     C          -0.097917           
         C79       1.0000    0.77270   0.80310   0.12703   Biso      1.000     C          0.080527  
         C80       1.0000    0.71030   0.86170   0.10268   Biso      1.000     C          -0.142622           
         C81       1.0000    0.10810   0.14920   0.39592   Biso      1.000     C          -0.024803           
         C82       1.0000    0.72210   0.87960   0.26140   Biso      1.000     C          -0.093758           
         C83       1.0000    0.16940   0.25320   0.32857   Biso      1.000     C          -0.152191           
         C84       1.0000    0.83250   0.21530   0.19627   Biso      1.000     C          -0.02265  
         C85       1.0000    0.89820   0.83020   0.26065   Biso      1.000     C          -0.100273           
         C86       1.0000    0.42900   0.80300   0.27420   Biso      1.000     C          -0.156863           
         C87       1.0000    0.78770   0.82310   0.18245   Biso      1.000     C          0.074647  
         C88       1.0000    0.74080   0.22650   0.15849   Biso      1.000     C          0.609838  
         C89       1.0000    0.90630   0.29660   0.22080   Biso      1.000     C          -0.092524           
         C90       1.0000    0.15140   0.62850   0.06362   Biso      1.000     C          0.679342  
         C91       1.0000    0.89190   0.85080   0.60408   Biso      1.000     C          -0.024805           
         C92       1.0000    0.01510   0.71000   0.74080   Biso      1.000     C          -0.156869           
         C93       1.0000    0.22730   0.19690   0.87297   Biso      1.000     C          0.080527  
         C94       1.0000    0.71630   0.21590   0.91116   Biso      1.000     C          -0.124904           
         C95       1.0000    0.96080   0.85520   0.64799   Biso      1.000     C          -0.14099  
         C96       1.0000    0.60500   0.16710   0.83068   Biso      1.000     C          -0.151181           
         C97       1.0000    0.11610   0.19080   0.79135   Biso      1.000     C          -0.142696           
         C98       1.0000    0.58610   0.06140   0.89077   Biso      1.000     C          0.585062  
         C99       1.0000    0.18060   0.13430   0.71273   Biso      1.000     C          -0.013805           
         C100      1.0000    0.79240   0.79650   0.59470   Biso      1.000     C          -0.124764           
         C101      1.0000    0.16520   0.11550   0.65697   Biso      1.000     C          0.589309  
         C102      1.0000    0.52950   0.22080   0.68180   Biso      1.000     C          -0.084731           
         C103      1.0000    0.76070   0.74510   0.62818   Biso      1.000     C          -0.009958           
         C104      1.0000    0.59520   0.37290   0.76850   Biso      1.000     C          -0.154245           
         C105      1.0000    0.24820   0.22960   0.97698   Biso      1.000     C          -0.122606           
         C106      1.0000    0.63790   0.14890   0.87728   Biso      1.000     C          -0.009729           
         C107      1.0000    0.72900   0.31580   0.85175   Biso      1.000     C          -0.135798           
         C108      1.0000    0.00910   0.79900   0.72683   Biso      1.000     C          0.075786  
         C109      1.0000    0.60480   0.27340   0.76952   Biso      1.000     C          0.078111  
         C110      1.0000    0.15870   0.87590   0.79105   Biso      1.000     C          -0.097917           
         C111      1.0000    0.64830   0.25100   0.81760   Biso      1.000     C          0.075465  
         C112      1.0000    0.52100   0.32050   0.68062   Biso      1.000     C          -0.025362           
         C113      1.0000    0.17750   0.27310   0.90163   Biso      1.000     C          -0.140182           
         C114      1.0000    0.08020   0.88290   0.75300   Biso      1.000     C          -0.153937           
         C115      1.0000    0.28970   0.13830   0.89732   Biso      1.000     C          -0.142623           
         C116      1.0000    0.76400   0.29880   0.89881   Biso      1.000     C          -0.028948           
         C117      1.0000    0.93130   0.80230   0.68188   Biso      1.000     C          0.070326  
         C118      1.0000    0.30120   0.15630   0.94939   Biso      1.000     C          -0.036487           
         C119      1.0000    0.29280   0.14190   0.79036   Biso      1.000     C          -0.142987           
         C120      1.0000    0.55380   0.39560   0.72490   Biso      1.000     C          -0.095969           
         H1        1.0000    0.76030   0.37120   0.84340   Biso      1.000     H          0.126062  
         H2        1.0000    0.80990   0.71060   0.69340   Biso      1.000     H          0.128101  
         H3        1.0000    0.03740   0.18000   0.72230   Biso      1.000     H          0.11794   
         H4        1.0000    0.57620   0.13040   0.72590   Biso      1.000     H          0.12209   
         H5        1.0000    0.09640   0.64340   0.78840   Biso      1.000     H          0.112875  
         H6        1.0000    0.06130   0.38350   0.76570   Biso      1.000     H          0.118544  
         H7        1.0000    0.72910   0.45110   0.61630   Biso      1.000     H          0.127923  
         H8        1.0000    0.91500   0.22660   0.61080   Biso      1.000     H          0.133451  
         H9        1.0000    0.72200   0.24170   0.48700   Biso      1.000     H          0.138336  
         H10       1.0000    0.74850   0.47110   0.69330   Biso      1.000     H          0.11782   
         H11       1.0000    0.00360   0.32040   0.68080   Biso      1.000     H          0.117832  
         H12       1.0000    0.96640   0.65440   0.72440   Biso      1.000     H          0.110413  
         H13       1.0000    0.33240   0.09680   0.72100   Biso      1.000     H          0.120326  
         H14       1.0000    0.13820   0.31390   0.88610   Biso      1.000     H          0.134741  
         H15       1.0000    0.20580   0.93210   0.80830   Biso      1.000     H          0.115316  
         H16       1.0000    0.07500   0.94380   0.74490   Biso      1.000     H          0.109912  
         H17       1.0000    0.54770   0.46220   0.72500   Biso      1.000     H          0.119816  
         H18       1.0000    0.35770   0.13280   0.80740   Biso      1.000     H          0.113796  
         H19       1.0000    0.61680   0.42420   0.79750   Biso      1.000     H          0.116424  
         H20       1.0000    0.50710   0.16960   0.65280   Biso      1.000     H          0.124087  
         H21       1.0000    0.74620   0.79430   0.56560   Biso      1.000     H          0.131126  
         H22       1.0000    0.06120   0.21420   0.80870   Biso      1.000     H          0.121276  
         H23       1.0000    0.55290   0.12190   0.80780   Biso      1.000     H          0.124733  
         H24       1.0000    0.02690   0.89380   0.65480   Biso      1.000     H          0.131156  
         H25       1.0000    0.80950   0.54000   0.77780   Biso      1.000     H          0.119979  
         H26       1.0000    0.73730   0.20530   0.94250   Biso      1.000     H          0.126383  
         H27       1.0000    0.32320   0.08760   0.87880   Biso      1.000     H          0.130279  
         H28       1.0000    0.25400   0.23970   0.01150   Biso      1.000     H          0.130255  
         H29       1.0000    0.23970   0.62880   0.15660   Biso      1.000     H          0.126062  
         H30       1.0000    0.97310   0.10620   0.34520   Biso      1.000     H          0.131156  
         H31       1.0000    0.26270   0.79470   0.05750   Biso      1.000     H          0.126383  
         H32       1.0000    0.19050   0.46000   0.22220   Biso      1.000     H          0.119979  
         H33       1.0000    0.99640   0.67960   0.31920   Biso      1.000     H          0.117832  
         H34       1.0000    0.25150   0.52890   0.30670   Biso      1.000     H          0.11782   
         H35       1.0000    0.27800   0.75830   0.51300   Biso      1.000     H          0.138336  
         H36       1.0000    0.08500   0.77340   0.38920   Biso      1.000     H          0.133451  
         H37       1.0000    0.93870   0.61650   0.23430   Biso      1.000     H          0.118544  
         H38       1.0000    0.03360   0.34560   0.27560   Biso      1.000     H          0.110413  
         H39       1.0000    0.90360   0.35660   0.21160   Biso      1.000     H          0.112875  
         H40       1.0000    0.42380   0.86960   0.27410   Biso      1.000     H          0.12209   
         H41       1.0000    0.96260   0.82000   0.27770   Biso      1.000     H          0.11794   
         H42       1.0000    0.19010   0.28940   0.30660   Biso      1.000     H          0.128101  
         H43       1.0000    0.27090   0.54890   0.38370   Biso      1.000     H          0.127923  
         H44       1.0000    0.67680   0.91240   0.12120   Biso      1.000     H          0.130279  
         H45       1.0000    0.66760   0.90320   0.27900   Biso      1.000     H          0.120325  
         H46       1.0000    0.93880   0.78580   0.19130   Biso      1.000     H          0.121276  
         H47       1.0000    0.25380   0.20570   0.43440   Biso      1.000     H          0.131126  
         H48       1.0000    0.49290   0.83040   0.34720   Biso      1.000     H          0.124087  
         H49       1.0000    0.38320   0.57580   0.20250   Biso      1.000     H          0.116424  
         H50       1.0000    0.74600   0.76030   0.98850   Biso      1.000     H          0.130255  
         H51       1.0000    0.44710   0.87810   0.19220   Biso      1.000     H          0.124733  
         H52       1.0000    0.45230   0.53780   0.27500   Biso      1.000     H          0.119816  
         H53       1.0000    0.92500   0.05620   0.25510   Biso      1.000     H          0.109912  
         H54       1.0000    0.86180   0.68610   0.11390   Biso      1.000     H          0.134741  
         H55       1.0000    0.79420   0.06790   0.19170   Biso      1.000     H          0.115316  
         H56       1.0000    0.64230   0.86720   0.19260   Biso      1.000     H          0.113796  
         O1        1.0000    0.39660   0.51630   0.45258   Biso      1.000     O          -0.69798  
         O2        1.0000    0.41180   0.31330   0.42070   Biso      1.000     O          -0.636325           
         O3        1.0000    0.97880   0.04930   0.42258   Biso      1.000     O          -0.643816           
         O4        1.0000    0.89660   0.65060   0.97559   Biso      1.000     O          -0.651903           
         O5        1.0000    0.91010   0.84640   0.36362   Biso      1.000     O          -0.675239           
         O6        1.0000    0.48540   0.99880   0.14091   Biso      1.000     O          -0.644673           
         O7        1.0000    0.38530   0.95300   0.06671   Biso      1.000     O          -0.639253           
         O8        1.0000    0.05070   0.46530   0.85658   Biso      1.000     O          -0.662704           
         O9        1.0000    0.44730   0.28000   0.59431   Biso      1.000     O          -0.60362  
         O10       1.0000    0.26300   0.69090   0.85225   Biso      1.000     O          -0.636729           
         O11       1.0000    0.77510   0.93830   0.36804   Biso      1.000     O          -0.631123           
         O12       1.0000    0.05970   0.41940   0.13914   Biso      1.000     O          -0.661362           
         O13       1.0000    0.13300   0.10890   0.47403   Biso      1.000     O          -0.694733           
         O14       1.0000    0.20680   0.92540   0.52368   Biso      1.000     O          -0.604702           
         O15       1.0000    0.12510   0.64660   0.02227   Biso      1.000     O          -0.712463           
         O16       1.0000    0.05530   0.90570   0.47177   Biso      1.000     O          -0.758409           
         O17       1.0000    0.90100   0.56450   0.03337   Biso      1.000     O          -0.72587  
         O18       1.0000    0.73700   0.30910   0.14775   Biso      1.000     O          -0.636729           
         O19       1.0000    0.61430   0.87170   0.97627   Biso      1.000     O          -0.718144           
         O20       1.0000    0.37100   0.37090   0.35482   Biso      1.000     O          -0.640082           
         O21       1.0000    0.67010   0.15120   0.14146   Biso      1.000     O          -0.755029           
         O22       1.0000    0.59740   0.97990   0.04824   Biso      1.000     O          -0.69305  
         O23       1.0000    0.37470   0.61440   0.52581   Biso      1.000     O          -0.706809           
         O24       1.0000    0.51690   0.55880   0.36380   Biso      1.000     O          -0.785854           
         O25       1.0000    0.38570   0.12830   0.02373   Biso      1.000     O          -0.718144           
         O26       1.0000    0.11080   0.55580   0.07781   Biso      1.000     O          -0.650172           
         O27       1.0000    0.62900   0.62910   0.64518   Biso      1.000     O          -0.640082           
         O28       1.0000    0.94930   0.53470   0.14342   Biso      1.000     O          -0.662704           
         O29       1.0000    0.40260   0.02010   0.95176   Biso      1.000     O          -0.69305  
         O30       1.0000    0.55270   0.72000   0.40569   Biso      1.000     O          -0.60362  
         O31       1.0000    0.51460   0.00120   0.85909   Biso      1.000     O          -0.644673           
         O32       1.0000    0.61470   0.04700   0.93329   Biso      1.000     O          -0.639253           
         O33       1.0000    0.22490   0.06170   0.63196   Biso      1.000     O          -0.631123           
         O34       1.0000    0.08990   0.15360   0.63638   Biso      1.000     O          -0.675239           
         O35       1.0000    0.32990   0.84880   0.85854   Biso      1.000     O          -0.755029           
         O36       1.0000    0.02120   0.95070   0.57742   Biso      1.000     O          -0.643816           
         O37       1.0000    0.58820   0.68670   0.57930   Biso      1.000     O          -0.636325           
         O38       1.0000    0.60340   0.48370   0.54742   Biso      1.000     O          -0.69798  
         O39       1.0000    0.10340   0.34940   0.02441   Biso      1.000     O          -0.651903           
         O40       1.0000    0.88920   0.44420   0.92219   Biso      1.000     O          -0.650172           
         O41       1.0000    0.79320   0.07460   0.47632   Biso      1.000     O          -0.604702           
         O42       1.0000    0.87490   0.35340   0.97773   Biso      1.000     O          -0.712463           
         O43       1.0000    0.94470   0.09430   0.52823   Biso      1.000     O          -0.758409           
         O44       1.0000    0.09900   0.43550   0.96663   Biso      1.000     O          -0.72587  
         O45       1.0000    0.86700   0.89110   0.52597   Biso      1.000     O          -0.694733           
         O46       1.0000    0.48310   0.44120   0.63620   Biso      1.000     O          -0.785854           
         O47       1.0000    0.62530   0.38560   0.47419   Biso      1.000     O          -0.706809           
         O48       1.0000    0.94030   0.58060   0.86086   Biso      1.000     O          -0.661362           
         Tb1       1.0000    0.12156   0.07335   0.55197   Biso      1.000     Tb          2.065302  
         Tb2       1.0000    0.46399   0.54780   0.58547   Biso      1.000     Tb          2.077922  
         Tb3       1.0000    0.48915   0.89152   0.91347   Biso      1.000     Tb          2.08423   
         Tb4       1.0000    0.51085   0.10848   0.08653   Biso      1.000     Tb          2.08423   
         Tb5       1.0000    0.87844   0.92665   0.44803   Biso      1.000     Tb          2.065302  
         Tb6       1.0000    0.53601   0.45220   0.41453   Biso      1.000     Tb          2.077922  
         Tb7       1.0000    0.96400   0.43401   0.06008   Biso      1.000     Tb          2.096052  
         Tb8       1.0000    0.03600   0.56599   0.93992   Biso      1.000     Tb          2.096052 