
##########################################################################
#               Crystallographic Information Format file
#               Produced by PyCifRW module
#
#  This is a CIF file.  CIF has been adopted by the International
#  Union of Crystallography as the standard for data archiving and
#  transmission.
#
#  For information on this file format, follow the CIF links at
#  http://www.iucr.org
##########################################################################

data_image0

_cell_length_a                          12.903
_cell_length_b                          13.782
_cell_length_c                          27.912
_cell_angle_alpha                       75.64
_cell_angle_beta                        79.46
_cell_angle_gamma                       85.71
_symmetry_space_group_name_H-M          'P 1'
_symmetry_int_tables_number             1
loop_
  _symmetry_equiv_pos_as_xyz
         'x, y, z' 
loop_
  _atom_site_label
  _atom_site_occupancy
  _atom_site_fract_x
  _atom_site_fract_y
  _atom_site_fract_z
  _atom_site_thermal_displace_type
  _atom_site_B_iso_or_equiv
  _atom_site_type_symbol
  _atom_site_charge
         C1        1.0000    0.83840   0.96160   0.65850   Biso      1.000     C          0.609551  
         C2        1.0000    0.17570   0.17570   0.54310   Biso      1.000     C          -0.015083           
         C3        1.0000    0.25070   0.24760   0.51930   Biso      1.000     C          -0.104283           
         C4        1.0000    0.28520   0.30640   0.54520   Biso      1.000     C          -0.022345           
         C5        1.0000    0.24820   0.29330   0.59600   Biso      1.000     C          -0.138861           
         C6        1.0000    0.17230   0.22340   0.62150   Biso      1.000     C          0.079197  
         C7        1.0000    0.13540   0.16520   0.59360   Biso      1.000     C          -0.143923           
         C8        1.0000    0.13530   0.21160   0.67620   Biso      1.000     C          0.075961  
         C9        1.0000    0.12730   0.11880   0.01610   Biso      1.000     C          0.684204  
         C10       1.0000    0.04050   0.16500   0.69960   Biso      1.000     C          -0.148854           
         C11       1.0000    0.06630   0.18490   0.77950   Biso      1.000     C          -0.016678           
         C12       1.0000    0.15510   0.23650   0.75620   Biso      1.000     C          -0.096481           
         C13       1.0000    0.18880   0.24910   0.70540   Biso      1.000     C          -0.145665           
         C14       1.0000    0.14030   0.11110   0.51430   Biso      1.000     C          0.660794  
         C15       1.0000    0.36020   0.38930   0.51880   Biso      1.000     C          0.700999  
         C16       1.0000    0.02900   0.17010   0.83520   Biso      1.000     C          0.607006  
         C17       1.0000    0.23570   0.61800   0.62600   Biso      1.000     C          -0.006589           
         C18       1.0000    0.00740   0.15210   0.75090   Biso      1.000     C          -0.094256           
         C19       1.0000    0.87270   0.88120   0.98390   Biso      1.000     C          0.684204  
         C20       1.0000    0.63020   0.62400   0.97860   Biso      1.000     C          0.714527  
         C21       1.0000    0.88410   0.89930   0.79220   Biso      1.000     C          -0.143196           
         C22       1.0000    0.52070   0.86170   0.31730   Biso      1.000     C          -0.022474           
         C23       1.0000    0.52280   0.96150   0.31550   Biso      1.000     C          -0.081465           
         C24       1.0000    0.56370   0.02750   0.27140   Biso      1.000     C          -0.148526           
         C25       1.0000    0.85070   0.06970   0.06300   Biso      1.000     C          0.692501  
         C26       1.0000    0.58070   0.32940   0.10830   Biso      1.000     C          0.591839  
         C27       1.0000    0.48140   0.78590   0.36460   Biso      1.000     C          0.628473  
         C28       1.0000    0.69960   0.70790   0.95110   Biso      1.000     C          -0.038177           
         C29       1.0000    0.75210   0.75400   0.97830   Biso      1.000     C          -0.120423           
         C30       1.0000    0.81450   0.83470   0.95440   Biso      1.000     C          -0.0136   
         C31       1.0000    0.82410   0.86860   0.90300   Biso      1.000     C          -0.14039  
         C32       1.0000    0.77440   0.82380   0.87490   Biso      1.000     C          0.085064  
         C33       1.0000    0.71230   0.74180   0.89920   Biso      1.000     C          -0.140942           
         C34       1.0000    0.79030   0.85860   0.81920   Biso      1.000     C          0.079966  
         C35       1.0000    0.71200   0.85080   0.79270   Biso      1.000     C          -0.147835           
         C36       1.0000    0.72710   0.88250   0.74090   Biso      1.000     C          -0.093992           
         C37       1.0000    0.82260   0.92300   0.71440   Biso      1.000     C          -0.017608           
         C38       1.0000    0.89810   0.93080   0.74090   Biso      1.000     C          -0.097558           
         C39       1.0000    0.20640   0.70130   0.59180   Biso      1.000     C          -0.126162           
         C40       1.0000    0.10680   0.74660   0.60230   Biso      1.000     C          -0.024793           
         C41       1.0000    0.03970   0.70730   0.64630   Biso      1.000     C          -0.143955           
         C42       1.0000    0.06730   0.62060   0.68030   Biso      1.000     C          0.075486  
         C43       1.0000    0.43630   0.97250   0.72860   Biso      1.000     C          -0.148527           
         C44       1.0000    0.14930   0.93030   0.93700   Biso      1.000     C          0.692501  
         C45       1.0000    0.41930   0.67060   0.89170   Biso      1.000     C          0.59184   
         C46       1.0000    0.51860   0.21410   0.63540   Biso      1.000     C          0.628472  
         C47       1.0000    0.30040   0.29210   0.04890   Biso      1.000     C          -0.038177           
         C48       1.0000    0.24790   0.24600   0.02170   Biso      1.000     C          -0.120423           
         C49       1.0000    0.18550   0.16530   0.04560   Biso      1.000     C          -0.0136   
         C50       1.0000    0.17590   0.13140   0.09700   Biso      1.000     C          -0.14039  
         C51       1.0000    0.22560   0.17620   0.12510   Biso      1.000     C          0.085064  
         C52       1.0000    0.28770   0.25820   0.10080   Biso      1.000     C          -0.140942           
         C53       1.0000    0.20970   0.14140   0.18080   Biso      1.000     C          0.079962  
         C54       1.0000    0.28800   0.14920   0.20730   Biso      1.000     C          -0.147835           
         C55       1.0000    0.27290   0.11750   0.25910   Biso      1.000     C          -0.093992           
         C56       1.0000    0.17740   0.07700   0.28560   Biso      1.000     C          -0.017607           
         C57       1.0000    0.10190   0.06920   0.25910   Biso      1.000     C          -0.097572           
         C58       1.0000    0.11590   0.10070   0.20780   Biso      1.000     C          -0.143179           
         C59       1.0000    0.36980   0.37600   0.02140   Biso      1.000     C          0.714527  
         C60       1.0000    0.47720   0.03850   0.68450   Biso      1.000     C          -0.081473           
         C61       1.0000    0.55840   0.82720   0.27390   Biso      1.000     C          -0.102591           
         C62       1.0000    0.47930   0.13830   0.68270   Biso      1.000     C          -0.022465           
         C63       1.0000    0.40090   0.10540   0.77090   Biso      1.000     C          -0.155087           
         C64       1.0000    0.16620   0.57690   0.66910   Biso      1.000     C          -0.15674  
         C65       1.0000    0.98950   0.57230   0.72510   Biso      1.000     C          0.078056  
         C66       1.0000    0.98450   0.46990   0.74010   Biso      1.000     C          -0.154577           
         C67       1.0000    0.90680   0.42540   0.77900   Biso      1.000     C          -0.093948           
         C68       1.0000    0.83240   0.48210   0.80330   Biso      1.000     C          -0.025326           
         C69       1.0000    0.83980   0.58520   0.78920   Biso      1.000     C          -0.097181           
         C70       1.0000    0.91720   0.63080   0.75080   Biso      1.000     C          -0.156848           
         C71       1.0000    0.34230   0.56610   0.61450   Biso      1.000     C          0.588702  
         C72       1.0000    0.07050   0.83630   0.56480   Biso      1.000     C          0.67484   
         C73       1.0000    0.74190   0.43350   0.84120   Biso      1.000     C          0.613656  
         C74       1.0000    0.23610   0.89700   0.90040   Biso      1.000     C          -0.027621           
         C75       1.0000    0.28380   0.80130   0.91230   Biso      1.000     C          -0.125844           
         C76       1.0000    0.36470   0.77100   0.87870   Biso      1.000     C          -0.009007           
         C77       1.0000    0.40070   0.83640   0.83320   Biso      1.000     C          -0.154358           
         C78       1.0000    0.35550   0.93230   0.82050   Biso      1.000     C          0.078876  
         C79       1.0000    0.27270   0.96050   0.85410   Biso      1.000     C          -0.139096           
         C80       1.0000    0.39790   0.00360   0.77180   Biso      1.000     C          0.074253  
         C81       1.0000    0.44160   0.17280   0.72610   Biso      1.000     C          -0.102592           
         C82       1.0000    0.59910   0.89460   0.22910   Biso      1.000     C          -0.155087           
         C83       1.0000    0.16160   0.03840   0.34150   Biso      1.000     C          0.609551  
         C84       1.0000    0.95950   0.83500   0.30040   Biso      1.000     C          -0.148854           
         C85       1.0000    0.08280   0.36920   0.24920   Biso      1.000     C          -0.156851           
         C86       1.0000    0.85970   0.88890   0.48570   Biso      1.000     C          0.660794  
         C87       1.0000    0.16020   0.41480   0.21080   Biso      1.000     C          -0.097178           
         C88       1.0000    0.86460   0.83480   0.40640   Biso      1.000     C          -0.143923           
         C89       1.0000    0.16760   0.51790   0.19670   Biso      1.000     C          -0.025327           
         C90       1.0000    0.81120   0.75090   0.29460   Biso      1.000     C          -0.145676           
         C91       1.0000    0.82430   0.82430   0.45690   Biso      1.000     C          -0.015083           
         C92       1.0000    0.09320   0.57460   0.22100   Biso      1.000     C          -0.093948           
         C93       1.0000    0.74930   0.75240   0.48070   Biso      1.000     C          -0.104283           
         C94       1.0000    0.01550   0.53010   0.25990   Biso      1.000     C          -0.154577           
         C95       1.0000    0.01050   0.42770   0.27490   Biso      1.000     C          0.078057  
         C96       1.0000    0.71480   0.69360   0.45480   Biso      1.000     C          -0.022345           
         C97       1.0000    0.89320   0.25340   0.39770   Biso      1.000     C          -0.024792           
         C98       1.0000    0.75180   0.70670   0.40400   Biso      1.000     C          -0.138861           
         C99       1.0000    0.84490   0.76350   0.24380   Biso      1.000     C          -0.09648  
         C100      1.0000    0.93370   0.81510   0.22050   Biso      1.000     C          -0.016673           
         C101      1.0000    0.63980   0.61070   0.48120   Biso      1.000     C          0.700999  
         C102      1.0000    0.99260   0.84790   0.24910   Biso      1.000     C          -0.094257           
         C103      1.0000    0.97100   0.82990   0.16480   Biso      1.000     C          0.607005  
         C104      1.0000    0.96030   0.29270   0.35370   Biso      1.000     C          -0.143955           
         C105      1.0000    0.79360   0.29870   0.40820   Biso      1.000     C          -0.126166           
         C106      1.0000    0.72730   0.03950   0.14590   Biso      1.000     C          -0.139099           
         C107      1.0000    0.64450   0.06770   0.17950   Biso      1.000     C          0.078878  
         C108      1.0000    0.86470   0.78840   0.32380   Biso      1.000     C          0.075966  
         C109      1.0000    0.93270   0.37940   0.31970   Biso      1.000     C          0.075486  
         C110      1.0000    0.76430   0.38200   0.37400   Biso      1.000     C          -0.006585           
         C111      1.0000    0.65770   0.43390   0.38550   Biso      1.000     C          0.588702  
         C112      1.0000    0.59930   0.16360   0.16680   Biso      1.000     C          -0.154361           
         C113      1.0000    0.83380   0.42310   0.33090   Biso      1.000     C          -0.156741           
         C114      1.0000    0.71620   0.19870   0.08770   Biso      1.000     C          -0.125845           
         C115      1.0000    0.76390   0.10300   0.09960   Biso      1.000     C          -0.027621           
         C116      1.0000    0.60210   0.99640   0.22820   Biso      1.000     C          0.074253  
         C117      1.0000    0.25810   0.56650   0.15880   Biso      1.000     C          0.613656  
         C118      1.0000    0.92950   0.16370   0.43520   Biso      1.000     C          0.67484   
         C119      1.0000    0.63530   0.22900   0.12130   Biso      1.000     C          -0.009005           
         C120      1.0000    0.82770   0.77660   0.37850   Biso      1.000     C          0.079197  
         H1        1.0000    0.25210   0.72710   0.56220   Biso      1.000     H          0.133047  
         H2        1.0000    0.05580   0.87930   0.23400   Biso      1.000     H          0.118308  
         H3        1.0000    0.62380   0.87190   0.20020   Biso      1.000     H          0.117767  
         H4        1.0000    0.75020   0.71590   0.30960   Biso      1.000     H          0.116258  
         H5        1.0000    0.97470   0.73920   0.65350   Biso      1.000     H          0.128741  
         H6        1.0000    0.19320   0.26340   0.77480   Biso      1.000     H          0.118589  
         H7        1.0000    0.99940   0.14240   0.68070   Biso      1.000     H          0.116737  
         H8        1.0000    0.80680   0.73660   0.22520   Biso      1.000     H          0.118589  
         H9        1.0000    0.24980   0.28410   0.69040   Biso      1.000     H          0.116257  
         H10       1.0000    0.92130   0.70030   0.74210   Biso      1.000     H          0.110677  
         H11       1.0000    0.18630   0.51880   0.69100   Biso      1.000     H          0.126932  
         H12       1.0000    0.06170   0.09450   0.19100   Biso      1.000     H          0.118934  
         H13       1.0000    0.03810   0.04160   0.27640   Biso      1.000     H          0.113475  
         H14       1.0000    0.32660   0.12330   0.27630   Biso      1.000     H          0.116981  
         H15       1.0000    0.35200   0.17620   0.19000   Biso      1.000     H          0.11294   
         H16       1.0000    0.32080   0.29020   0.11920   Biso      1.000     H          0.129555  
         H17       1.0000    0.13450   0.07650   0.11320   Biso      1.000     H          0.130841  
         H18       1.0000    0.25500   0.26970   0.98710   Biso      1.000     H          0.128262  
         H19       1.0000    0.43460   0.90490   0.72910   Biso      1.000     H          0.11541   
         H20       1.0000    0.50350   0.01510   0.65600   Biso      1.000     H          0.123882  
         H21       1.0000    0.00060   0.85760   0.31930   Biso      1.000     H          0.116737  
         H22       1.0000    0.44360   0.24060   0.72510   Biso      1.000     H          0.11943   
         H23       1.0000    0.24080   0.02370   0.84550   Biso      1.000     H          0.126823  
         H24       1.0000    0.45570   0.81600   0.81080   Biso      1.000     H          0.125357  
         H25       1.0000    0.26080   0.75770   0.94310   Biso      1.000     H          0.125735  
         H26       1.0000    0.72270   0.74460   0.51470   Biso      1.000     H          0.134182  
         H27       1.0000    0.79160   0.62450   0.80590   Biso      1.000     H          0.113869  
         H28       1.0000    0.72540   0.66780   0.38640   Biso      1.000     H          0.125035  
         H29       1.0000    0.90470   0.35580   0.78890   Biso      1.000     H          0.114025  
         H30       1.0000    0.03350   0.43020   0.72410   Biso      1.000     H          0.111757  
         H31       1.0000    0.91670   0.88090   0.39080   Biso      1.000     H          0.131713  
         H32       1.0000    0.37620   0.12810   0.79980   Biso      1.000     H          0.117767  
         H33       1.0000    0.74790   0.27290   0.43780   Biso      1.000     H          0.133047  
         H34       1.0000    0.94420   0.12070   0.76600   Biso      1.000     H          0.118308  
         H35       1.0000    0.27460   0.33220   0.61360   Biso      1.000     H          0.125035  
         H36       1.0000    0.08330   0.11910   0.60920   Biso      1.000     H          0.131713  
         H37       1.0000    0.09530   0.64420   0.21110   Biso      1.000     H          0.114025  
         H38       1.0000    0.96190   0.95840   0.72360   Biso      1.000     H          0.113474  
         H39       1.0000    0.93830   0.90550   0.80900   Biso      1.000     H          0.118935  
         H40       1.0000    0.96650   0.56980   0.27590   Biso      1.000     H          0.111757  
         H41       1.0000    0.20840   0.37550   0.19410   Biso      1.000     H          0.113868  
         H42       1.0000    0.67920   0.70980   0.88080   Biso      1.000     H          0.129555  
         H43       1.0000    0.07870   0.29970   0.25790   Biso      1.000     H          0.110677  
         H44       1.0000    0.86550   0.92350   0.88680   Biso      1.000     H          0.130841  
         H45       1.0000    0.67340   0.87670   0.72370   Biso      1.000     H          0.116981  
         H46       1.0000    0.74500   0.73030   0.01290   Biso      1.000     H          0.128262  
         H47       1.0000    0.73920   0.24230   0.05690   Biso      1.000     H          0.125735  
         H48       1.0000    0.64800   0.82380   0.81000   Biso      1.000     H          0.11294   
         H49       1.0000    0.56540   0.09510   0.27090   Biso      1.000     H          0.11541   
         H50       1.0000    0.02530   0.26080   0.34650   Biso      1.000     H          0.128741  
         H51       1.0000    0.27730   0.25540   0.48530   Biso      1.000     H          0.134182  
         H52       1.0000    0.81370   0.48120   0.30900   Biso      1.000     H          0.126932  
         H53       1.0000    0.75920   0.97630   0.15450   Biso      1.000     H          0.126823  
         H54       1.0000    0.55640   0.75940   0.27490   Biso      1.000     H          0.11943   
         H55       1.0000    0.54430   0.18400   0.18920   Biso      1.000     H          0.125357  
         H56       1.0000    0.49650   0.98490   0.34400   Biso      1.000     H          0.123881  
         O1        1.0000    0.92840   0.78600   0.14037   Biso      1.000     O          -0.657433           
         O2        1.0000    0.59600   0.57190   0.95410   Biso      1.000     O          -0.711625           
         O3        1.0000    0.44490   0.81490   0.40310   Biso      1.000     O          -0.602174           
         O4        1.0000    0.94570   0.93230   0.47205   Biso      1.000     O          -0.75615  
         O5        1.0000    0.48870   0.69410   0.36320   Biso      1.000     O          -0.795608           
         O6        1.0000    0.61340   0.38940   0.06707   Biso      1.000     O          -0.652082           
         O7        1.0000    0.50560   0.35390   0.13850   Biso      1.000     O          -0.635353           
         O8        1.0000    0.79930   0.90020   0.52540   Biso      1.000     O          -0.623105           
         O9        1.0000    0.87640   0.12730   0.02089   Biso      1.000     O          -0.720152           
         O10       1.0000    0.89010   0.98370   0.07700   Biso      1.000     O          -0.654676           
         O11       1.0000    0.32640   0.50900   0.14120   Biso      1.000     O          -0.752343           
         O12       1.0000    0.26060   0.66040   0.14770   Biso      1.000     O          -0.639482           
         O13       1.0000    0.59940   0.56660   0.45600   Biso      1.000     O          -0.705562           
         O14       1.0000    0.86820   0.13500   0.47597   Biso      1.000     O          -0.704658           
         O15       1.0000    0.62450   0.58960   0.52867   Biso      1.000     O          -0.707977           
         O16       1.0000    0.59270   0.39200   0.42291   Biso      1.000     O          -0.634627           
         O17       1.0000    0.63700   0.51630   0.35742   Biso      1.000     O          -0.63473  
         O18       1.0000    0.04470   0.88790   0.14420   Biso      1.000     O          -0.671361           
         O19       1.0000    0.01960   0.12600   0.42269   Biso      1.000     O          -0.642418           
         O20       1.0000    0.89370   0.82760   0.02470   Biso      1.000     O          -0.653157           
         O21       1.0000    0.90060   0.96920   0.96650   Biso      1.000     O          -0.727972           
         O22       1.0000    0.08760   0.98250   0.36254   Biso      1.000     O          -0.673826           
         O23       1.0000    0.22280   0.06300   0.36530   Biso      1.000     O          -0.643745           
         O24       1.0000    0.10630   0.17240   0.97530   Biso      1.000     O          -0.653158           
         O25       1.0000    0.09940   0.03080   0.03350   Biso      1.000     O          -0.727972           
         O26       1.0000    0.38950   0.39160   0.97510   Biso      1.000     O          -0.707842           
         O27       1.0000    0.40400   0.42810   0.04590   Biso      1.000     O          -0.711625           
         O28       1.0000    0.55510   0.18510   0.59690   Biso      1.000     O          -0.602174           
         O29       1.0000    0.51130   0.30590   0.63680   Biso      1.000     O          -0.795608           
         O30       1.0000    0.38660   0.61060   0.93293   Biso      1.000     O          -0.652082           
         O31       1.0000    0.49440   0.64610   0.86150   Biso      1.000     O          -0.635353           
         O32       1.0000    0.12360   0.87270   0.97911   Biso      1.000     O          -0.720152           
         O33       1.0000    0.10990   0.01630   0.92300   Biso      1.000     O          -0.654676           
         O34       1.0000    0.67360   0.49100   0.85880   Biso      1.000     O          -0.752343           
         O35       1.0000    0.61050   0.60840   0.02490   Biso      1.000     O          -0.707842           
         O36       1.0000    0.98040   0.87400   0.57731   Biso      1.000     O          -0.642418           
         O37       1.0000    0.73940   0.33960   0.85230   Biso      1.000     O          -0.639482           
         O38       1.0000    0.40730   0.60800   0.57709   Biso      1.000     O          -0.634627           
         O39       1.0000    0.36300   0.48370   0.64258   Biso      1.000     O          -0.63473  
         O40       1.0000    0.07160   0.21400   0.85963   Biso      1.000     O          -0.657433           
         O41       1.0000    0.95530   0.11210   0.85580   Biso      1.000     O          -0.671361           
         O42       1.0000    0.37550   0.41040   0.47133   Biso      1.000     O          -0.707977           
         O43       1.0000    0.40060   0.43340   0.54400   Biso      1.000     O          -0.705562           
         O44       1.0000    0.20070   0.09980   0.47460   Biso      1.000     O          -0.623105           
         O45       1.0000    0.05430   0.06770   0.52795   Biso      1.000     O          -0.75615  
         O46       1.0000    0.13180   0.86500   0.52403   Biso      1.000     O          -0.704659           
         O47       1.0000    0.77720   0.93700   0.63470   Biso      1.000     O          -0.643745           
         O48       1.0000    0.91240   0.01750   0.63746   Biso      1.000     O          -0.673827           
         Tb1       1.0000    0.47005   0.53812   0.41489   Biso      1.000     Tb          2.08185   
         Tb2       1.0000    0.03018   0.87474   0.06046   Biso      1.000     Tb          2.097116  
         Tb3       1.0000    0.96982   0.12526   0.93954   Biso      1.000     Tb          2.097116  
         Tb4       1.0000    0.11984   0.97877   0.44635   Biso      1.000     Tb          2.072052  
         Tb5       1.0000    0.52995   0.46188   0.58511   Biso      1.000     Tb          2.08185   
         Tb6       1.0000    0.48348   0.52060   0.08578   Biso      1.000     Tb          2.090169  
         Tb7       1.0000    0.51652   0.47940   0.91422   Biso      1.000     Tb          2.090169  
         Tb8       1.0000    0.88016   0.02123   0.55365   Biso      1.000     Tb          2.072052 