
##########################################################################
#               Crystallographic Information Format file
#               Produced by PyCifRW module
#
#  This is a CIF file.  CIF has been adopted by the International
#  Union of Crystallography as the standard for data archiving and
#  transmission.
#
#  For information on this file format, follow the CIF links at
#  http://www.iucr.org
##########################################################################

data_image0

_cell_length_a                          9.747
_cell_length_b                          9.747
_cell_length_c                          14.7695
_cell_angle_alpha                       100.16
_cell_angle_beta                        100.16
_cell_angle_gamma                       107.053
_symmetry_space_group_name_H-M          'P 1'
_symmetry_int_tables_number             1
loop_
  _symmetry_equiv_pos_as_xyz
         'x, y, z' 
loop_
  _atom_site_label
  _atom_site_occupancy
  _atom_site_fract_x
  _atom_site_fract_y
  _atom_site_fract_z
  _atom_site_thermal_displace_type
  _atom_site_B_iso_or_equiv
  _atom_site_type_symbol
  _atom_site_charge
         C1        1.0000    0.50690   0.68850   0.24140   Biso      1.000     C          0.091062  
         C2        1.0000    0.72116   0.03484   0.91890   Biso      1.000     C          0.5958289999999999  
         C3        1.0000    0.86932   0.02328   0.96070   Biso      1.000     C          -0.013567           
         C4        1.0000    0.90073   0.89907   0.92180   Biso      1.000     C          -0.162734           
         C5        1.0000    0.97084   0.12656   0.03990   Biso      1.000     C          -0.022303           
         C6        1.0000    0.94960   0.26840   0.08330   Biso      1.000     C          0.596769  
         C7        1.0000    0.49310   0.31150   0.75860   Biso      1.000     C          0.08706799999999999           
         C8        1.0000    0.09927   0.10093   0.07820   Biso      1.000     C          -0.161227           
         C9        1.0000    0.30077   0.49743   0.75120   Biso      1.000     C          0.092011  
         C10       1.0000    0.97672   0.13068   0.53930   Biso      1.000     C          -0.013567           
         C11       1.0000    0.10093   0.09927   0.57820   Biso      1.000     C          -0.162734           
         C12       1.0000    0.87344   0.02916   0.46010   Biso      1.000     C          -0.022303           
         C13       1.0000    0.73160   0.05040   0.41670   Biso      1.000     C          0.596769  
         C14       1.0000    0.68850   0.50690   0.74140   Biso      1.000     C          0.08706799999999999           
         C15       1.0000    0.50257   0.69923   0.74880   Biso      1.000     C          0.092011  
         C16       1.0000    0.96516   0.27884   0.58110   Biso      1.000     C          0.5958289999999999  
         C17       1.0000    0.02916   0.87344   0.96010   Biso      1.000     C          -0.021504           
         C18       1.0000    0.05040   0.73160   0.91670   Biso      1.000     C          0.595955  
         C19       1.0000    0.69923   0.50257   0.24880   Biso      1.000     C          0.095612  
         C20       1.0000    0.72340   0.27660   0.25000   Biso      1.000     C          0.28024499999999997           
         C21       1.0000    0.55110   0.44890   0.25000   Biso      1.000     C          0.0063549999999999995         
         C22       1.0000    0.45640   0.54360   0.25000   Biso      1.000     C          0.008533  
         C23       1.0000    0.28370   0.71630   0.25000   Biso      1.000     C          0.278572  
         C24       1.0000    0.27660   0.72340   0.75000   Biso      1.000     C          0.276331  
         C25       1.0000    0.44890   0.55110   0.75000   Biso      1.000     C          0.006161  
         C26       1.0000    0.54360   0.45640   0.75000   Biso      1.000     C          0.008239  
         C27       1.0000    0.71630   0.28370   0.75000   Biso      1.000     C          0.275121  
         C28       1.0000    0.49743   0.30077   0.25120   Biso      1.000     C          0.095613  
         C29       1.0000    0.31150   0.49310   0.25860   Biso      1.000     C          0.091063  
         C30       1.0000    0.26840   0.94960   0.58330   Biso      1.000     C          0.595955  
         C31       1.0000    0.12656   0.97084   0.53990   Biso      1.000     C          -0.021504           
         C32       1.0000    0.89907   0.90073   0.42180   Biso      1.000     C          -0.161227           
         C33       1.0000    0.02328   0.86932   0.46070   Biso      1.000     C          -0.014740999999999999         
         C34       1.0000    0.03484   0.72116   0.41890   Biso      1.000     C          0.595962  
         C35       1.0000    0.27884   0.96516   0.08110   Biso      1.000     C          0.595962  
         C36       1.0000    0.13068   0.97672   0.03930   Biso      1.000     C          -0.014740999999999999         
         Cu1       1.0000    0.49662   0.00644   0.75704   Biso      1.000     Cu          0.723547  
         Cu2       1.0000    0.99356   0.50338   0.74296   Biso      1.000     Cu          0.723549  
         Cu3       1.0000    0.50338   0.99356   0.24296   Biso      1.000     Cu          0.756157  
         Cu4       1.0000    0.00644   0.49662   0.25704   Biso      1.000     Cu          0.756158  
         H1        1.0000    0.78200   0.21800   0.25000   Biso      1.000     H          0.101379  
         H2        1.0000    0.83390   0.83090   0.86860   Biso      1.000     H          0.10537200000000001           
         H3        1.0000    0.39740   0.27320   0.76570   Biso      1.000     H          0.11704   
         H4        1.0000    0.25980   0.39900   0.75260   Biso      1.000     H          0.115074  
         H5        1.0000    0.16910   0.16610   0.63140   Biso      1.000     H          0.10537200000000001           
         H6        1.0000    0.22400   0.77600   0.25000   Biso      1.000     H          0.106608  
         H7        1.0000    0.60100   0.74020   0.74740   Biso      1.000     H          0.11507300000000001           
         H8        1.0000    0.72680   0.60260   0.73430   Biso      1.000     H          0.11704   
         H9        1.0000    0.60260   0.72680   0.23430   Biso      1.000     H          0.116426  
         H10       1.0000    0.74020   0.60100   0.24740   Biso      1.000     H          0.11439300000000001           
         H11       1.0000    0.83090   0.83390   0.36860   Biso      1.000     H          0.104771  
         H12       1.0000    0.27320   0.39740   0.26570   Biso      1.000     H          0.116426  
         H13       1.0000    0.39900   0.25980   0.25260   Biso      1.000     H          0.11439300000000001           
         H14       1.0000    0.21800   0.78200   0.75000   Biso      1.000     H          0.101061  
         H15       1.0000    0.77600   0.22400   0.75000   Biso      1.000     H          0.106262  
         H16       1.0000    0.16610   0.16910   0.13140   Biso      1.000     H          0.104771  
         N1        1.0000    0.58232   0.21488   0.25051   Biso      1.000     N          -0.19478199999999998          
         N2        1.0000    0.22526   0.57754   0.25681   Biso      1.000     N          -0.194838           
         N3        1.0000    0.78512   0.41768   0.24949   Biso      1.000     N          -0.19478199999999998          
         N4        1.0000    0.42246   0.77474   0.24319   Biso      1.000     N          -0.19483699999999998          
         N5        1.0000    0.77474   0.42246   0.74319   Biso      1.000     N          -0.185495           
         N6        1.0000    0.21488   0.58232   0.75051   Biso      1.000     N          -0.18509  
         N7        1.0000    0.57754   0.22526   0.75681   Biso      1.000     N          -0.185494           
         N8        1.0000    0.41768   0.78512   0.74949   Biso      1.000     N          -0.18509  
         O1        1.0000    0.05080   0.64020   0.47000   Biso      1.000     O          -0.540774           
         O2        1.0000    0.01968   0.68892   0.33058   Biso      1.000     O          -0.580807           
         O3        1.0000    0.10870   0.66910   0.96880   Biso      1.000     O          -0.553389           
         O4        1.0000    0.00688   0.68804   0.82800   Biso      1.000     O          -0.584866           
         O5        1.0000    0.35980   0.94920   0.03000   Biso      1.000     O          -0.540774           
         O6        1.0000    0.31108   0.98032   0.16942   Biso      1.000     O          -0.580807           
         O7        1.0000    0.66910   0.10870   0.46880   Biso      1.000     O          -0.555722           
         O8        1.0000    0.68804   0.00688   0.32800   Biso      1.000     O          -0.5924189999999999           
         O9        1.0000    0.98032   0.31108   0.66942   Biso      1.000     O          -0.575663           
         O10       1.0000    0.89130   0.33090   0.03120   Biso      1.000     O          -0.555722           
         O11       1.0000    0.99312   0.31196   0.17200   Biso      1.000     O          -0.5924189999999999           
         O12       1.0000    0.64020   0.05080   0.97000   Biso      1.000     O          -0.540563           
         O13       1.0000    0.68892   0.01968   0.83058   Biso      1.000     O          -0.575663           
         O14       1.0000    0.31196   0.99312   0.67200   Biso      1.000     O          -0.584866           
         O15       1.0000    0.94920   0.35980   0.53000   Biso      1.000     O          -0.540563           
         O16       1.0000    0.33090   0.89130   0.53120   Biso      1.000     O          -0.553389 