
##########################################################################
#               Crystallographic Information Format file
#               Produced by PyCifRW module
#
#  This is a CIF file.  CIF has been adopted by the International
#  Union of Crystallography as the standard for data archiving and
#  transmission.
#
#  For information on this file format, follow the CIF links at
#  http://www.iucr.org
##########################################################################

data_image0

_cell_length_a                          9.9498
_cell_length_b                          9.9498
_cell_length_c                          14.376
_cell_angle_alpha                       98.3515
_cell_angle_beta                        98.3515
_cell_angle_gamma                       107.677
_symmetry_space_group_name_H-M          'P 1'
_symmetry_int_tables_number             1
loop_
  _symmetry_equiv_pos_as_xyz
         'x, y, z' 
loop_
  _atom_site_label
  _atom_site_occupancy
  _atom_site_fract_x
  _atom_site_fract_y
  _atom_site_fract_z
  _atom_site_thermal_displace_type
  _atom_site_B_iso_or_equiv
  _atom_site_type_symbol
  _atom_site_charge
         C1        1.0000    0.94100   0.25980   0.57220   Biso      1.000     C          0.588334  
         C2        1.0000    0.10290   0.09290   0.07420   Biso      1.000     C          -0.158678           
         C3        1.0000    0.25980   0.94100   0.07220   Biso      1.000     C          0.588245  
         C4        1.0000    0.01900   0.72260   0.91770   Biso      1.000     C          0.5794    
         C5        1.0000    0.68940   0.50560   0.74230   Biso      1.000     C          0.082916  
         C6        1.0000    0.30610   0.49290   0.74680   Biso      1.000     C          0.086045  
         C7        1.0000    0.96530   0.12330   0.53460   Biso      1.000     C          -0.021984           
         C8        1.0000    0.86950   0.01490   0.45840   Biso      1.000     C          -0.007031           
         C9        1.0000    0.09290   0.10290   0.57420   Biso      1.000     C          -0.158485           
         C10       1.0000    0.72260   0.01900   0.41770   Biso      1.000     C          0.57889   
         C11       1.0000    0.49440   0.31060   0.75770   Biso      1.000     C          0.082962  
         C12       1.0000    0.50710   0.69390   0.75320   Biso      1.000     C          0.08611   
         C13       1.0000    0.01490   0.86950   0.95840   Biso      1.000     C          -0.007273           
         C14       1.0000    0.87670   0.03470   0.96540   Biso      1.000     C          -0.021955           
         C15       1.0000    0.89710   0.90710   0.92580   Biso      1.000     C          -0.15851  
         C16       1.0000    0.74020   0.05900   0.92780   Biso      1.000     C          0.588141  
         C17       1.0000    0.98100   0.27740   0.08230   Biso      1.000     C          0.578987  
         C18       1.0000    0.45400   0.54600   0.25000   Biso      1.000     C          0.007927  
         C19       1.0000    0.28890   0.71110   0.25000   Biso      1.000     C          0.268467  
         C20       1.0000    0.54580   0.45420   0.25000   Biso      1.000     C          -0.00157  
         C21       1.0000    0.71430   0.28570   0.25000   Biso      1.000     C          0.271545  
         C22       1.0000    0.54600   0.45400   0.75000   Biso      1.000     C          0.007667  
         C23       1.0000    0.71110   0.28890   0.75000   Biso      1.000     C          0.267999  
         C24       1.0000    0.45420   0.54580   0.75000   Biso      1.000     C          -0.001801           
         C25       1.0000    0.28570   0.71430   0.75000   Biso      1.000     C          0.271406  
         C26       1.0000    0.98510   0.13050   0.04160   Biso      1.000     C          -0.007154           
         C27       1.0000    0.49290   0.30610   0.24680   Biso      1.000     C          0.086831  
         C28       1.0000    0.12330   0.96530   0.03460   Biso      1.000     C          -0.021617           
         C29       1.0000    0.27740   0.98100   0.58230   Biso      1.000     C          0.579129  
         C30       1.0000    0.05900   0.74020   0.42780   Biso      1.000     C          0.588244  
         C31       1.0000    0.90710   0.89710   0.42580   Biso      1.000     C          -0.158701           
         C32       1.0000    0.13050   0.98510   0.54160   Biso      1.000     C          -0.007045           
         C33       1.0000    0.03470   0.87670   0.46540   Biso      1.000     C          -0.021681           
         C34       1.0000    0.69390   0.50710   0.25320   Biso      1.000     C          0.086811  
         C35       1.0000    0.31060   0.49440   0.25770   Biso      1.000     C          0.083594  
         C36       1.0000    0.50560   0.68940   0.24230   Biso      1.000     C          0.083609  
         H1        1.0000    0.27220   0.39960   0.26460   Biso      1.000     H          0.115577  
         H2        1.0000    0.73620   0.60500   0.25570   Biso      1.000     H          0.110407  
         H3        1.0000    0.84440   0.82740   0.37480   Biso      1.000     H          0.107256  
         H4        1.0000    0.60040   0.72780   0.23540   Biso      1.000     H          0.115586  
         H5        1.0000    0.39500   0.26380   0.24430   Biso      1.000     H          0.110412  
         H6        1.0000    0.17260   0.15560   0.12520   Biso      1.000     H          0.107215  
         H7        1.0000    0.72780   0.60040   0.73540   Biso      1.000     H          0.115481  
         H8        1.0000    0.26380   0.39500   0.74430   Biso      1.000     H          0.110315  
         H9        1.0000    0.39960   0.27220   0.76460   Biso      1.000     H          0.11547   
         H10       1.0000    0.60500   0.73620   0.75570   Biso      1.000     H          0.110312  
         H11       1.0000    0.82740   0.84440   0.87480   Biso      1.000     H          0.107512  
         H12       1.0000    0.23100   0.76900   0.25000   Biso      1.000     H          0.09904   
         H13       1.0000    0.77220   0.22780   0.25000   Biso      1.000     H          0.102094  
         H14       1.0000    0.76900   0.23100   0.75000   Biso      1.000     H          0.098843  
         H15       1.0000    0.22780   0.77220   0.75000   Biso      1.000     H          0.101971  
         H16       1.0000    0.15560   0.17260   0.62520   Biso      1.000     H          0.107533  
         N1        1.0000    0.77370   0.42470   0.74460   Biso      1.000     N          -0.160133           
         N2        1.0000    0.42470   0.77370   0.24460   Biso      1.000     N          -0.159841           
         N3        1.0000    0.22200   0.57480   0.74720   Biso      1.000     N          -0.160781           
         N4        1.0000    0.57530   0.22630   0.75540   Biso      1.000     N          -0.160123           
         N5        1.0000    0.42520   0.77800   0.75280   Biso      1.000     N          -0.160743           
         N6        1.0000    0.22630   0.57530   0.25540   Biso      1.000     N          -0.159888           
         N7        1.0000    0.77800   0.42520   0.25280   Biso      1.000     N          -0.160588           
         N8        1.0000    0.57480   0.22200   0.24720   Biso      1.000     N          -0.160538           
         Ni1       1.0000    0.00236   0.50008   0.25466   Biso      1.000     Ni          0.603181  
         Ni2       1.0000    0.50008   0.00236   0.75466   Biso      1.000     Ni          0.600219  
         Ni3       1.0000    0.99764   0.49992   0.74534   Biso      1.000     Ni          0.601822  
         Ni4       1.0000    0.49992   0.99764   0.24534   Biso      1.000     Ni          0.602904  
         O1        1.0000    0.68360   0.11860   0.98640   Biso      1.000     O          -0.557927           
         O2        1.0000    0.68850   0.01390   0.83940   Biso      1.000     O          -0.535382           
         O3        1.0000    0.63660   0.01940   0.47040   Biso      1.000     O          -0.516098           
         O4        1.0000    0.69490   0.01570   0.32810   Biso      1.000     O          -0.527075           
         O5        1.0000    0.88140   0.31640   0.51360   Biso      1.000     O          -0.557972           
         O6        1.0000    0.98610   0.31150   0.66060   Biso      1.000     O          -0.535402           
         O7        1.0000    0.01940   0.63660   0.97040   Biso      1.000     O          -0.515927           
         O8        1.0000    0.01570   0.69490   0.82810   Biso      1.000     O          -0.528394           
         O9        1.0000    0.31640   0.88140   0.01360   Biso      1.000     O          -0.559568           
         O10       1.0000    0.31150   0.98610   0.16060   Biso      1.000     O          -0.535182           
         O11       1.0000    0.36340   0.98060   0.52960   Biso      1.000     O          -0.515386           
         O12       1.0000    0.30510   0.98430   0.67190   Biso      1.000     O          -0.528431           
         O13       1.0000    0.11860   0.68360   0.48640   Biso      1.000     O          -0.559368           
         O14       1.0000    0.01390   0.68850   0.33940   Biso      1.000     O          -0.535025           
         O15       1.0000    0.98430   0.30510   0.17190   Biso      1.000     O          -0.526988           
         O16       1.0000    0.98060   0.36340   0.02960   Biso      1.000     O          -0.516166 