
##########################################################################
#               Crystallographic Information Format file
#               Produced by PyCifRW module
#
#  This is a CIF file.  CIF has been adopted by the International
#  Union of Crystallography as the standard for data archiving and
#  transmission.
#
#  For information on this file format, follow the CIF links at
#  http://www.iucr.org
##########################################################################

data_image0

_cell_length_a                          10.9838
_cell_length_b                          14.4336
_cell_length_c                          16.1229
_cell_angle_alpha                       90
_cell_angle_beta                        92.8671
_cell_angle_gamma                       90
_symmetry_space_group_name_H-M          'P 1'
_symmetry_int_tables_number             1
loop_
  _symmetry_equiv_pos_as_xyz
         'x, y, z' 
loop_
  _atom_site_label
  _atom_site_occupancy
  _atom_site_fract_x
  _atom_site_fract_y
  _atom_site_fract_z
  _atom_site_thermal_displace_type
  _atom_site_B_iso_or_equiv
  _atom_site_type_symbol
  _atom_site_charge
         C1        1.0000    0.06220   0.97580   0.90770   Biso      1.000     C          0.091861  
         C2        1.0000    0.23650   0.39220   0.39310   Biso      1.000     C          -0.15503  
         C3        1.0000    0.33850   0.46040   0.27360   Biso      1.000     C          -0.08392999999999999          
         C4        1.0000    0.35750   0.45930   0.18940   Biso      1.000     C          -0.12030199999999999          
         C5        1.0000    0.29390   0.39640   0.13740   Biso      1.000     C          -0.086552           
         C6        1.0000    0.21790   0.33170   0.16630   Biso      1.000     C          -0.063528           
         C7        1.0000    0.15850   0.26140   0.10950   Biso      1.000     C          0.566571  
         C8        1.0000    0.11740   0.93100   0.84210   Biso      1.000     C          -0.156416           
         C9        1.0000    0.31430   0.73990   0.49480   Biso      1.000     C          0.100741  
         C10       1.0000    0.24450   0.85360   0.69360   Biso      1.000     C          -0.070319           
         C11       1.0000    0.30180   0.90380   0.75500   Biso      1.000     C          -0.002334           
         C12       1.0000    0.23460   0.06960   0.92920   Biso      1.000     C          0.083995  
         C13       1.0000    0.23150   0.95110   0.82150   Biso      1.000     C          0.157183  
         C14       1.0000    0.31330   0.81540   0.62730   Biso      1.000     C          0.171164  
         C15       1.0000    0.88260   0.43100   0.15790   Biso      1.000     C          -0.156416           
         C16       1.0000    0.93780   0.47580   0.09230   Biso      1.000     C          0.091861  
         C17       1.0000    0.76540   0.56960   0.07080   Biso      1.000     C          0.083994  
         C18       1.0000    0.70640   0.52070   0.13090   Biso      1.000     C          -0.168404           
         C19       1.0000    0.76850   0.45110   0.17850   Biso      1.000     C          0.157183  
         C20       1.0000    0.69820   0.40380   0.24500   Biso      1.000     C          -0.0023469999999999997        
         C21       1.0000    0.75550   0.35360   0.30640   Biso      1.000     C          -0.070306           
         C22       1.0000    0.68570   0.23990   0.50520   Biso      1.000     C          0.100741  
         C23       1.0000    0.74450   0.28410   0.44530   Biso      1.000     C          -0.191126           
         C24       1.0000    0.68670   0.31540   0.37270   Biso      1.000     C          0.171166  
         C25       1.0000    0.55830   0.30220   0.36640   Biso      1.000     C          -0.165897           
         C26       1.0000    0.49970   0.25750   0.42930   Biso      1.000     C          0.07252   
         C27       1.0000    0.08350   0.83710   0.14330   Biso      1.000     C          -0.17416800000000002          
         C28       1.0000    0.03410   0.78320   0.07860   Biso      1.000     C          0.10597899999999999           
         C29       1.0000    0.15960   0.32840   0.42690   Biso      1.000     C          -0.10746700000000001          
         C30       1.0000    0.09750   0.26280   0.37230   Biso      1.000     C          -0.107223           
         C31       1.0000    0.11150   0.26550   0.29100   Biso      1.000     C          -0.141513           
         C32       1.0000    0.19460   0.32890   0.25470   Biso      1.000     C          0.044842  
         C33       1.0000    0.44170   0.80220   0.63360   Biso      1.000     C          -0.165897           
         C34       1.0000    0.50030   0.75750   0.57070   Biso      1.000     C          0.07252   
         C35       1.0000    0.91650   0.33710   0.85670   Biso      1.000     C          -0.17416800000000002          
         C36       1.0000    0.96590   0.28320   0.92140   Biso      1.000     C          0.10597899999999999           
         C37       1.0000    0.83830   0.16210   0.89230   Biso      1.000     C          0.078388  
         C38       1.0000    0.78300   0.20670   0.82610   Biso      1.000     C          -0.17661300000000002          
         C39       1.0000    0.82490   0.29670   0.80420   Biso      1.000     C          0.148922  
         C40       1.0000    0.76580   0.34270   0.73100   Biso      1.000     C          -0.003297           
         C41       1.0000    0.81570   0.41610   0.69140   Biso      1.000     C          -0.087987           
         C42       1.0000    0.74460   0.57510   0.51300   Biso      1.000     C          0.08676299999999999           
         C43       1.0000    0.80740   0.52640   0.57570   Biso      1.000     C          -0.19216  
         C44       1.0000    0.74350   0.46190   0.62200   Biso      1.000     C          0.172     
         C45       1.0000    0.62730   0.44920   0.60270   Biso      1.000     C          -0.172862           
         C46       1.0000    0.16170   0.66210   0.10770   Biso      1.000     C          0.078388  
         C47       1.0000    0.57140   0.49850   0.53760   Biso      1.000     C          0.0915    
         C48       1.0000    0.79480   0.97510   0.23850   Biso      1.000     C          0.061974  
         C49       1.0000    0.73270   0.91490   0.29550   Biso      1.000     C          0.049654000000000004          
         C50       1.0000    0.73230   0.94040   0.38000   Biso      1.000     C          -0.154343           
         C51       1.0000    0.78550   0.02000   0.40760   Biso      1.000     C          -0.09781000000000001          
         C52       1.0000    0.84260   0.07780   0.35410   Biso      1.000     C          -0.105925           
         C53       1.0000    0.84950   0.05700   0.27070   Biso      1.000     C          -0.143247           
         C54       1.0000    0.79300   0.94960   0.15350   Biso      1.000     C          -0.09346900000000001          
         C55       1.0000    0.72910   0.87170   0.12690   Biso      1.000     C          -0.10603900000000001          
         C56       1.0000    0.66780   0.81510   0.18320   Biso      1.000     C          -0.122055           
         C57       1.0000    0.67280   0.83420   0.26550   Biso      1.000     C          -0.051516           
         C58       1.0000    0.61160   0.76870   0.32370   Biso      1.000     C          0.585903  
         C59       1.0000    0.41150   0.53060   0.32680   Biso      1.000     C          0.569312  
         C60       1.0000    0.25390   0.39330   0.30780   Biso      1.000     C          0.052274  
         C61       1.0000    0.85710   0.00100   0.08730   Biso      1.000     C          0.596837  
         C62       1.0000    0.21700   0.70670   0.17390   Biso      1.000     C          -0.17661300000000002          
         C63       1.0000    0.25550   0.78410   0.55470   Biso      1.000     C          -0.19112200000000001          
         C64       1.0000    0.23420   0.84270   0.26900   Biso      1.000     C          -0.003295           
         C65       1.0000    0.90250   0.76280   0.62770   Biso      1.000     C          -0.107222           
         C66       1.0000    0.88850   0.76550   0.70900   Biso      1.000     C          -0.141513           
         C67       1.0000    0.66150   0.96040   0.72640   Biso      1.000     C          -0.08392999999999999          
         C68       1.0000    0.64250   0.95930   0.81060   Biso      1.000     C          -0.12030199999999999          
         C69       1.0000    0.70610   0.89640   0.86260   Biso      1.000     C          -0.086552           
         C70       1.0000    0.78210   0.83170   0.83370   Biso      1.000     C          -0.063528           
         C71       1.0000    0.84150   0.76140   0.89050   Biso      1.000     C          0.566571  
         C72       1.0000    0.17510   0.79670   0.19580   Biso      1.000     C          0.148921  
         C73       1.0000    0.84040   0.82840   0.57310   Biso      1.000     C          -0.10746900000000001          
         C74       1.0000    0.80540   0.82890   0.74530   Biso      1.000     C          0.044842  
         C75       1.0000    0.74610   0.89330   0.69220   Biso      1.000     C          0.052275  
         C76       1.0000    0.58850   0.03060   0.67320   Biso      1.000     C          0.569313  
         C77       1.0000    0.38840   0.26870   0.67630   Biso      1.000     C          0.585905  
         C78       1.0000    0.32720   0.33420   0.73450   Biso      1.000     C          -0.051533           
         C79       1.0000    0.33220   0.31510   0.81680   Biso      1.000     C          -0.12203800000000001          
         C80       1.0000    0.76350   0.89220   0.60690   Biso      1.000     C          -0.155029           
         C81       1.0000    0.42860   0.99850   0.46240   Biso      1.000     C          0.091504  
         C82       1.0000    0.27090   0.37170   0.87310   Biso      1.000     C          -0.10604200000000001          
         C83       1.0000    0.14290   0.50100   0.91270   Biso      1.000     C          0.5968359999999999  
         C84       1.0000    0.26730   0.41490   0.70450   Biso      1.000     C          0.049655  
         C85       1.0000    0.26770   0.44040   0.62000   Biso      1.000     C          -0.154342           
         C86       1.0000    0.37270   0.94920   0.39730   Biso      1.000     C          -0.172901           
         C87       1.0000    0.19260   0.02640   0.42430   Biso      1.000     C          -0.192167           
         C88       1.0000    0.25650   0.96190   0.37800   Biso      1.000     C          0.172037  
         C89       1.0000    0.21450   0.52000   0.59240   Biso      1.000     C          -0.09781000000000001          
         C90       1.0000    0.15740   0.57780   0.64590   Biso      1.000     C          -0.105925           
         C91       1.0000    0.15050   0.55700   0.72930   Biso      1.000     C          -0.14324800000000001          
         C92       1.0000    0.20700   0.44960   0.84650   Biso      1.000     C          -0.093467           
         C93       1.0000    0.29360   0.02070   0.86910   Biso      1.000     C          -0.168405           
         C94       1.0000    0.18430   0.91610   0.30860   Biso      1.000     C          -0.087989           
         C95       1.0000    0.25540   0.07510   0.48700   Biso      1.000     C          0.086767  
         C96       1.0000    0.20520   0.47510   0.76150   Biso      1.000     C          0.061975  
         H1        1.0000    0.62530   0.53370   0.14020   Biso      1.000     H          0.136464  
         H2        1.0000    0.82800   0.29390   0.45330   Biso      1.000     H          0.127608  
         H3        1.0000    0.73040   0.21780   0.55160   Biso      1.000     H          0.10521300000000001           
         H4        1.0000    0.69550   0.89920   0.91940   Biso      1.000     H          0.122948  
         H5        1.0000    0.01410   0.45680   0.07650   Biso      1.000     H          0.10699000000000002           
         H6        1.0000    0.92620   0.38600   0.18800   Biso      1.000     H          0.128891  
         H7        1.0000    0.51330   0.32360   0.31990   Biso      1.000     H          0.12764   
         H8        1.0000    0.72560   0.61850   0.04340   Biso      1.000     H          0.114674  
         H9        1.0000    0.41600   0.24810   0.42360   Biso      1.000     H          0.10157200000000001           
         H10       1.0000    0.21230   0.11730   0.51780   Biso      1.000     H          0.102974  
         H11       1.0000    0.97110   0.80920   0.04570   Biso      1.000     H          0.092584  
         H12       1.0000    0.58740   0.00030   0.83260   Biso      1.000     H          0.12138199999999999           
         H13       1.0000    0.72270   0.93500   0.57250   Biso      1.000     H          0.112036  
         H14       1.0000    0.85190   0.82780   0.51630   Biso      1.000     H          0.111135  
         H15       1.0000    0.95290   0.71820   0.60580   Biso      1.000     H          0.098984  
         H16       1.0000    0.93360   0.72520   0.74340   Biso      1.000     H          0.119932  
         H17       1.0000    0.37640   0.26400   0.83660   Biso      1.000     H          0.120779  
         H18       1.0000    0.11020   0.59680   0.76410   Biso      1.000     H          0.125826  
         H19       1.0000    0.12240   0.63240   0.62550   Biso      1.000     H          0.09084600000000001           
         H20       1.0000    0.21660   0.53580   0.53650   Biso      1.000     H          0.104551  
         H21       1.0000    0.30490   0.40180   0.58260   Biso      1.000     H          0.108501  
         H22       1.0000    0.50940   0.98450   0.47730   Biso      1.000     H          0.090054  
         H23       1.0000    0.41740   0.90720   0.36730   Biso      1.000     H          0.134891  
         H24       1.0000    0.10970   0.03620   0.41320   Biso      1.000     H          0.132114  
         H25       1.0000    0.28110   0.67900   0.20440   Biso      1.000     H          0.144541  
         H26       1.0000    0.18910   0.60320   0.09420   Biso      1.000     H          0.098553  
         H27       1.0000    0.05710   0.89740   0.15160   Biso      1.000     H          0.132629  
         H28       1.0000    0.27380   0.35620   0.92920   Biso      1.000     H          0.12136500000000001           
         H29       1.0000    0.94290   0.39740   0.84840   Biso      1.000     H          0.132629  
         H30       1.0000    0.98590   0.95680   0.92350   Biso      1.000     H          0.10699000000000002           
         H31       1.0000    0.30450   0.39920   0.08060   Biso      1.000     H          0.122948  
         H32       1.0000    0.41260   0.50030   0.16740   Biso      1.000     H          0.12138199999999999           
         H33       1.0000    0.27730   0.43500   0.42750   Biso      1.000     H          0.112036  
         H34       1.0000    0.14810   0.32780   0.48370   Biso      1.000     H          0.111135  
         H35       1.0000    0.04710   0.21820   0.39420   Biso      1.000     H          0.098984  
         H36       1.0000    0.06640   0.22520   0.25660   Biso      1.000     H          0.119932  
         H37       1.0000    0.62360   0.76400   0.16340   Biso      1.000     H          0.12078   
         H38       1.0000    0.72620   0.85620   0.07080   Biso      1.000     H          0.12136500000000001           
         H39       1.0000    0.07380   0.88600   0.81200   Biso      1.000     H          0.128891  
         H40       1.0000    0.87760   0.13240   0.37450   Biso      1.000     H          0.09084600000000001           
         H41       1.0000    0.78340   0.03580   0.46350   Biso      1.000     H          0.104551  
         H42       1.0000    0.69510   0.90180   0.41740   Biso      1.000     H          0.108502  
         H43       1.0000    0.88980   0.09680   0.23590   Biso      1.000     H          0.125826  
         H44       1.0000    0.58260   0.40720   0.63270   Biso      1.000     H          0.134888  
         H45       1.0000    0.27440   0.11850   0.95660   Biso      1.000     H          0.114673  
         H46       1.0000    0.49060   0.48450   0.52270   Biso      1.000     H          0.090055  
         H47       1.0000    0.26960   0.71780   0.44840   Biso      1.000     H          0.10521300000000001           
         H48       1.0000    0.17200   0.79390   0.54670   Biso      1.000     H          0.127608  
         H49       1.0000    0.48670   0.82360   0.68010   Biso      1.000     H          0.12764   
         H50       1.0000    0.37470   0.03370   0.85980   Biso      1.000     H          0.136465  
         H51       1.0000    0.02890   0.30920   0.95430   Biso      1.000     H          0.092584  
         H52       1.0000    0.81090   0.10320   0.90580   Biso      1.000     H          0.098553  
         H53       1.0000    0.71890   0.17900   0.79560   Biso      1.000     H          0.144541  
         H54       1.0000    0.78770   0.61730   0.48220   Biso      1.000     H          0.102974  
         H55       1.0000    0.89030   0.53620   0.58680   Biso      1.000     H          0.132113  
         H56       1.0000    0.58400   0.74810   0.57640   Biso      1.000     H          0.10157200000000001           
         N1        1.0000    0.62540   0.56470   0.49470   Biso      1.000     N          -0.213164           
         N2        1.0000    0.93230   0.20030   0.93990   Biso      1.000     N          -0.21702800000000003          
         N3        1.0000    0.43800   0.72670   0.50030   Biso      1.000     N          -0.23166799999999999          
         N4        1.0000    0.12030   0.04730   0.94850   Biso      1.000     N          -0.22539  
         N5        1.0000    0.87970   0.54730   0.05150   Biso      1.000     N          -0.22539  
         N6        1.0000    0.56200   0.22670   0.49970   Biso      1.000     N          -0.23166799999999999          
         N7        1.0000    0.37460   0.06470   0.50530   Biso      1.000     N          -0.21316500000000002          
         N8        1.0000    0.06770   0.70030   0.06010   Biso      1.000     N          -0.21702800000000003          
         O1        1.0000    0.05420   0.55220   0.88700   Biso      1.000     O          -0.5619390000000001           
         O2        1.0000    0.21800   0.23650   0.04850   Biso      1.000     O          -0.5825640000000001           
         O3        1.0000    0.36400   0.56910   0.38630   Biso      1.000     O          -0.540482           
         O4        1.0000    0.49670   0.75590   0.31140   Biso      1.000     O          -0.572513           
         O5        1.0000    0.67140   0.73140   0.38040   Biso      1.000     O          -0.52932  
         O6        1.0000    0.04830   0.23950   0.11660   Biso      1.000     O          -0.5317970000000001           
         O7        1.0000    0.51670   0.54890   0.30660   Biso      1.000     O          -0.538862           
         O8        1.0000    0.94580   0.05220   0.11300   Biso      1.000     O          -0.5619390000000001           
         O9        1.0000    0.82680   0.99100   0.01540   Biso      1.000     O          -0.5536409999999999           
         O10       1.0000    0.17320   0.49100   0.98460   Biso      1.000     O          -0.5536409999999999           
         O11       1.0000    0.32860   0.23140   0.61960   Biso      1.000     O          -0.52932  
         O12       1.0000    0.50330   0.25590   0.68860   Biso      1.000     O          -0.572513           
         O13       1.0000    0.48330   0.04890   0.69340   Biso      1.000     O          -0.538863           
         O14       1.0000    0.63600   0.06910   0.61370   Biso      1.000     O          -0.540482           
         O15       1.0000    0.78200   0.73650   0.95150   Biso      1.000     O          -0.5825640000000001           
         O16       1.0000    0.95170   0.73950   0.88340   Biso      1.000     O          -0.5317970000000001           
         Zn1       1.0000    0.03311   0.12474   0.03416   Biso      1.000     Zn          0.746779  
         Zn2       1.0000    0.47637   0.14760   0.58883   Biso      1.000     Zn          0.729058  
         Zn3       1.0000    0.52363   0.64760   0.41117   Biso      1.000     Zn          0.729058  
         Zn4       1.0000    0.96689   0.62474   0.96584   Biso      1.000     Zn          0.746779 