
##########################################################################
#               Crystallographic Information Format file
#               Produced by PyCifRW module
#
#  This is a CIF file.  CIF has been adopted by the International
#  Union of Crystallography as the standard for data archiving and
#  transmission.
#
#  For information on this file format, follow the CIF links at
#  http://www.iucr.org
##########################################################################

data_image0

_cell_length_a                          17.178
_cell_length_b                          23.0653
_cell_length_c                          23.0653
_cell_angle_alpha                       60.8269
_cell_angle_beta                        68.1377
_cell_angle_gamma                       68.1377
_symmetry_space_group_name_H-M          'P 1'
_symmetry_int_tables_number             1
loop_
  _symmetry_equiv_pos_as_xyz
         'x, y, z' 
loop_
  _atom_site_label
  _atom_site_occupancy
  _atom_site_fract_x
  _atom_site_fract_y
  _atom_site_fract_z
  _atom_site_thermal_displace_type
  _atom_site_B_iso_or_equiv
  _atom_site_type_symbol
  _atom_site_charge
         C1        1.0000    0.61459   0.30004   0.88414   Biso      1.000     C          0.203456  
         C2        1.0000    0.65249   0.89730   0.18352   Biso      1.000     C          -0.086381           
         C3        1.0000    0.54350   0.95659   0.11221   Biso      1.000     C          0.621111  
         C4        1.0000    0.17672   0.56900   0.32242   Biso      1.000     C          -0.047564999999999996         
         C5        1.0000    0.44768   0.58941   0.99203   Biso      1.000     C          -0.13536800000000002          
         C6        1.0000    0.40682   0.62850   0.03046   Biso      1.000     C          -0.181766           
         C7        1.0000    0.29877   0.61586   0.19996   Biso      1.000     C          0.201006  
         C8        1.0000    0.18325   0.55833   0.26679   Biso      1.000     C          -0.086026           
         C9        1.0000    0.24254   0.58266   0.20612   Biso      1.000     C          -0.204601           
         C10       1.0000    0.29441   0.62514   0.25656   Biso      1.000     C          -0.204656           
         C11       1.0000    0.23331   0.60270   0.31648   Biso      1.000     C          -0.088585           
         C12       1.0000    0.11230   0.54341   0.38779   Biso      1.000     C          0.620775  
         C13       1.0000    0.17672   0.32242   0.56900   Biso      1.000     C          -0.047564999999999996         
         C14       1.0000    0.44768   0.99203   0.58941   Biso      1.000     C          -0.13537000000000002          
         C15       1.0000    0.40682   0.03046   0.62850   Biso      1.000     C          -0.181766           
         C16       1.0000    0.29877   0.19996   0.61586   Biso      1.000     C          0.201006  
         C17       1.0000    0.18325   0.26679   0.55833   Biso      1.000     C          -0.086026           
         C18       1.0000    0.24254   0.20612   0.58266   Biso      1.000     C          -0.204601           
         C19       1.0000    0.29441   0.25656   0.62514   Biso      1.000     C          -0.204656           
         C20       1.0000    0.23331   0.31648   0.60270   Biso      1.000     C          -0.088585           
         C21       1.0000    0.11230   0.38779   0.54341   Biso      1.000     C          0.620775  
         C22       1.0000    0.56814   0.17758   0.93100   Biso      1.000     C          -0.046653           
         C23       1.0000    0.52912   0.50797   0.91059   Biso      1.000     C          -0.13472  
         C24       1.0000    0.56578   0.46954   0.87150   Biso      1.000     C          -0.182352           
         C25       1.0000    0.50837   0.23321   0.94167   Biso      1.000     C          -0.08692899999999999          
         C26       1.0000    0.53132   0.29388   0.91734   Biso      1.000     C          -0.206763           
         C27       1.0000    0.67611   0.24344   0.87486   Biso      1.000     C          -0.204783           
         C28       1.0000    0.65249   0.18352   0.89730   Biso      1.000     C          -0.086382           
         C29       1.0000    0.43186   0.06900   0.82242   Biso      1.000     C          -0.046652           
         C30       1.0000    0.47088   0.08941   0.49203   Biso      1.000     C          -0.134721           
         C31       1.0000    0.67611   0.87486   0.24344   Biso      1.000     C          -0.204783           
         C32       1.0000    0.43422   0.12850   0.53046   Biso      1.000     C          -0.182353           
         C33       1.0000    0.53132   0.91734   0.29388   Biso      1.000     C          -0.20676799999999998          
         C34       1.0000    0.61459   0.88414   0.30004   Biso      1.000     C          0.203461  
         C35       1.0000    0.52077   0.97923   0.47923   Biso      1.000     C          0.064251  
         C36       1.0000    0.59872   0.90128   0.40128   Biso      1.000     C          0.19137200000000001           
         C37       1.0000    0.47923   0.52077   0.02077   Biso      1.000     C          0.064266  
         C38       1.0000    0.40128   0.59872   0.09872   Biso      1.000     C          0.191385  
         C39       1.0000    0.47923   0.02077   0.52077   Biso      1.000     C          0.06428099999999999           
         C40       1.0000    0.40128   0.09872   0.59872   Biso      1.000     C          0.191395  
         C41       1.0000    0.52077   0.47923   0.97923   Biso      1.000     C          0.064266  
         C42       1.0000    0.59872   0.40128   0.90128   Biso      1.000     C          0.191382  
         C43       1.0000    0.82328   0.67758   0.43100   Biso      1.000     C          -0.047564999999999996         
         C44       1.0000    0.55232   0.00797   0.41059   Biso      1.000     C          -0.135354           
         C45       1.0000    0.59318   0.96954   0.37150   Biso      1.000     C          -0.181754           
         C46       1.0000    0.70123   0.80004   0.38414   Biso      1.000     C          0.201005  
         C47       1.0000    0.81675   0.73321   0.44167   Biso      1.000     C          -0.086026           
         C48       1.0000    0.75746   0.79388   0.41734   Biso      1.000     C          -0.204601           
         C49       1.0000    0.70559   0.74344   0.37486   Biso      1.000     C          -0.204656           
         C50       1.0000    0.76669   0.68352   0.39730   Biso      1.000     C          -0.088585           
         C51       1.0000    0.88770   0.61221   0.45659   Biso      1.000     C          0.620775  
         C52       1.0000    0.43186   0.82242   0.06900   Biso      1.000     C          -0.046653           
         C53       1.0000    0.47088   0.49203   0.08941   Biso      1.000     C          -0.134707           
         C54       1.0000    0.43422   0.53046   0.12850   Biso      1.000     C          -0.182344           
         C55       1.0000    0.38541   0.69996   0.11586   Biso      1.000     C          0.203456  
         C56       1.0000    0.49163   0.76679   0.05833   Biso      1.000     C          -0.08692899999999999          
         C57       1.0000    0.46868   0.70612   0.08266   Biso      1.000     C          -0.206763           
         C58       1.0000    0.32389   0.75656   0.12514   Biso      1.000     C          -0.204783           
         C59       1.0000    0.34751   0.81648   0.10270   Biso      1.000     C          -0.086382           
         C60       1.0000    0.45650   0.88779   0.04341   Biso      1.000     C          0.621112  
         C61       1.0000    0.56814   0.93100   0.17758   Biso      1.000     C          -0.046651           
         C62       1.0000    0.52912   0.91059   0.50797   Biso      1.000     C          -0.134706           
         C63       1.0000    0.56578   0.87150   0.46954   Biso      1.000     C          -0.182343           
         C64       1.0000    0.50837   0.94167   0.23321   Biso      1.000     C          -0.086931           
         C65       1.0000    0.38541   0.11586   0.69996   Biso      1.000     C          0.203456  
         C66       1.0000    0.54350   0.11221   0.95659   Biso      1.000     C          0.621112  
         C67       1.0000    0.46868   0.08266   0.70612   Biso      1.000     C          -0.20676399999999998          
         C68       1.0000    0.88770   0.45659   0.61221   Biso      1.000     C          0.620775  
         C69       1.0000    0.76669   0.39730   0.68352   Biso      1.000     C          -0.088587           
         C70       1.0000    0.70559   0.37486   0.74344   Biso      1.000     C          -0.204655           
         C71       1.0000    0.75746   0.41734   0.79388   Biso      1.000     C          -0.20460699999999998          
         C72       1.0000    0.81675   0.44167   0.73321   Biso      1.000     C          -0.086026           
         C73       1.0000    0.70123   0.38414   0.80004   Biso      1.000     C          0.20101   
         C74       1.0000    0.49163   0.05833   0.76679   Biso      1.000     C          -0.08693200000000001          
         C75       1.0000    0.55232   0.41059   0.00797   Biso      1.000     C          -0.135356           
         C76       1.0000    0.59318   0.37150   0.96954   Biso      1.000     C          -0.181754           
         C77       1.0000    0.82328   0.43100   0.67758   Biso      1.000     C          -0.047562           
         C78       1.0000    0.45650   0.04341   0.88779   Biso      1.000     C          0.621111  
         C79       1.0000    0.34751   0.10270   0.81648   Biso      1.000     C          -0.08638  
         C80       1.0000    0.32389   0.12514   0.75656   Biso      1.000     C          -0.204782           
         H1        1.0000    0.48940   0.33130   0.92370   Biso      1.000     H          0.12318   
         H2        1.0000    0.45190   0.22990   0.96550   Biso      1.000     H          0.11839000000000001           
         H3        1.0000    0.56780   0.49060   0.82500   Biso      1.000     H          0.127169  
         H4        1.0000    0.50950   0.55500   0.88900   Biso      1.000     H          0.10880799999999999           
         H5        1.0000    0.33280   0.25390   0.64650   Biso      1.000     H          0.127691  
         H6        1.0000    0.73320   0.24610   0.85350   Biso      1.000     H          0.126866  
         H7        1.0000    0.24440   0.16870   0.57630   Biso      1.000     H          0.122627  
         H8        1.0000    0.14730   0.27010   0.53450   Biso      1.000     H          0.11830999999999998           
         H9        1.0000    0.38340   0.00940   0.67500   Biso      1.000     H          0.127073  
         H10       1.0000    0.23000   0.35350   0.61030   Biso      1.000     H          0.11864100000000001           
         H11       1.0000    0.69380   0.14650   0.88970   Biso      1.000     H          0.116875  
         H12       1.0000    0.54810   0.03450   0.77010   Biso      1.000     H          0.11838800000000001           
         H13       1.0000    0.43220   0.17500   0.50940   Biso      1.000     H          0.127169  
         H14       1.0000    0.51060   0.07630   0.66870   Biso      1.000     H          0.12318   
         H15       1.0000    0.26680   0.14650   0.75390   Biso      1.000     H          0.126866  
         H16       1.0000    0.30620   0.11030   0.85350   Biso      1.000     H          0.116876  
         H17       1.0000    0.45350   0.94500   0.61100   Biso      1.000     H          0.108858  
         H18       1.0000    0.61660   0.32500   0.99060   Biso      1.000     H          0.127073  
         H19       1.0000    0.85270   0.46550   0.72990   Biso      1.000     H          0.11830999999999998           
         H20       1.0000    0.75560   0.42370   0.83130   Biso      1.000     H          0.122628  
         H21       1.0000    0.77000   0.38970   0.64650   Biso      1.000     H          0.11864100000000001           
         H22       1.0000    0.66720   0.35350   0.74610   Biso      1.000     H          0.12769   
         H23       1.0000    0.49050   0.11100   0.44500   Biso      1.000     H          0.10880799999999999           
         H24       1.0000    0.54650   0.38900   0.05500   Biso      1.000     H          0.108857  
         H25       1.0000    0.33280   0.64650   0.25390   Biso      1.000     H          0.12769   
         H26       1.0000    0.24440   0.57630   0.16870   Biso      1.000     H          0.122627  
         H27       1.0000    0.54650   0.05500   0.38900   Biso      1.000     H          0.108857  
         H28       1.0000    0.61660   0.99060   0.32500   Biso      1.000     H          0.127072  
         H29       1.0000    0.85270   0.72990   0.46550   Biso      1.000     H          0.11830999999999998           
         H30       1.0000    0.75560   0.83130   0.42370   Biso      1.000     H          0.122627  
         H31       1.0000    0.23000   0.61030   0.35350   Biso      1.000     H          0.11864100000000001           
         H32       1.0000    0.77000   0.64650   0.38970   Biso      1.000     H          0.11864100000000001           
         H33       1.0000    0.49050   0.44500   0.11100   Biso      1.000     H          0.10880699999999999           
         H34       1.0000    0.43220   0.50940   0.17500   Biso      1.000     H          0.127168  
         H35       1.0000    0.54810   0.77010   0.03450   Biso      1.000     H          0.11839000000000001           
         H36       1.0000    0.51060   0.66870   0.07630   Biso      1.000     H          0.12318   
         H37       1.0000    0.66720   0.74610   0.35350   Biso      1.000     H          0.12769   
         H38       1.0000    0.30620   0.85350   0.11030   Biso      1.000     H          0.116875  
         H39       1.0000    0.26680   0.75390   0.14650   Biso      1.000     H          0.126866  
         H40       1.0000    0.14730   0.53450   0.27010   Biso      1.000     H          0.11830999999999998           
         H41       1.0000    0.45350   0.61100   0.94500   Biso      1.000     H          0.108858  
         H42       1.0000    0.69380   0.88970   0.14650   Biso      1.000     H          0.116876  
         H43       1.0000    0.38340   0.67500   0.00940   Biso      1.000     H          0.127073  
         H44       1.0000    0.48940   0.92370   0.33130   Biso      1.000     H          0.12318   
         H45       1.0000    0.45190   0.96550   0.22990   Biso      1.000     H          0.11838800000000001           
         H46       1.0000    0.56780   0.82500   0.49060   Biso      1.000     H          0.127168  
         H47       1.0000    0.50950   0.88900   0.55500   Biso      1.000     H          0.10880699999999999           
         H48       1.0000    0.73320   0.85350   0.24610   Biso      1.000     H          0.126866  
         N1        1.0000    0.36114   0.13886   0.63886   Biso      1.000     N          -0.15998900000000002          
         N2        1.0000    0.63886   0.86114   0.36114   Biso      1.000     N          -0.159987           
         N3        1.0000    0.63886   0.36114   0.86114   Biso      1.000     N          -0.15998800000000002          
         N4        1.0000    0.36114   0.63886   0.13886   Biso      1.000     N          -0.15998800000000002          
         O1        1.0000    0.10886   0.43577   0.55707   Biso      1.000     O          -0.587341           
         O2        1.0000    0.06570   0.51110   0.38998   Biso      1.000     O          -0.580833           
         O3        1.0000    0.10886   0.55707   0.43577   Biso      1.000     O          -0.587341           
         O4        1.0000    0.06570   0.38998   0.51110   Biso      1.000     O          -0.580833           
         O5        1.0000    0.53322   0.88998   0.01110   Biso      1.000     O          -0.581906           
         O6        1.0000    0.60170   0.94293   0.06423   Biso      1.000     O          -0.5868369999999999           
         O7        1.0000    0.46678   0.98890   0.11002   Biso      1.000     O          -0.581878           
         O8        1.0000    0.39830   0.93577   0.05707   Biso      1.000     O          -0.586806           
         O9        1.0000    0.60170   0.06423   0.94293   Biso      1.000     O          -0.586806           
         O10       1.0000    0.89114   0.56423   0.44293   Biso      1.000     O          -0.587341           
         O11       1.0000    0.39830   0.05707   0.93577   Biso      1.000     O          -0.5868369999999999           
         O12       1.0000    0.53322   0.01110   0.88998   Biso      1.000     O          -0.581878           
         O13       1.0000    0.89114   0.44293   0.56423   Biso      1.000     O          -0.587341           
         O14       1.0000    0.93430   0.48890   0.61002   Biso      1.000     O          -0.580833           
         O15       1.0000    0.93430   0.61002   0.48890   Biso      1.000     O          -0.580833           
         O16       1.0000    0.46678   0.11002   0.98890   Biso      1.000     O          -0.581906           
         Zn1       1.0000    0.97177   0.46997   0.46997   Biso      1.000     Zn          1.047743  
         Zn2       1.0000    0.41171   0.03003   0.03004   Biso      1.000     Zn          1.047294  
         Zn3       1.0000    0.58829   0.96997   0.96996   Biso      1.000     Zn          1.047294  
         Zn4       1.0000    0.02823   0.53003   0.53003   Biso      1.000     Zn          1.047743 