
##########################################################################
#               Crystallographic Information Format file
#               Produced by PyCifRW module
#
#  This is a CIF file.  CIF has been adopted by the International
#  Union of Crystallography as the standard for data archiving and
#  transmission.
#
#  For information on this file format, follow the CIF links at
#  http://www.iucr.org
##########################################################################

data_image0

_cell_length_a                          17.953
_cell_length_b                          19.8193
_cell_length_c                          23.023
_cell_angle_alpha                       90
_cell_angle_beta                        90
_cell_angle_gamma                       116.931
_symmetry_space_group_name_H-M          'P 1'
_symmetry_int_tables_number             1
loop_
  _symmetry_equiv_pos_as_xyz
         'x, y, z' 
loop_
  _atom_site_label
  _atom_site_occupancy
  _atom_site_fract_x
  _atom_site_fract_y
  _atom_site_fract_z
  _atom_site_thermal_displace_type
  _atom_site_B_iso_or_equiv
  _atom_site_type_symbol
  _atom_site_charge
         C1        1.0000    0.31419   0.32716   0.64667   Biso      1.000     C          -0.08623600000000001          
         C2        1.0000    0.07074   0.39522   0.12303   Biso      1.000     C          -0.046053           
         C3        1.0000    0.04628   0.43466   0.07848   Biso      1.000     C          0.623865  
         C4        1.0000    0.94500   0.91704   0.20014   Biso      1.000     C          -0.135746           
         C5        1.0000    0.90604   0.83974   0.20005   Biso      1.000     C          -0.179893           
         C6        1.0000    0.82359   0.61238   0.18348   Biso      1.000     C          -0.202517           
         C7        1.0000    0.98703   0.67284   0.14667   Biso      1.000     C          -0.086382           
         C8        1.0000    0.96275   0.70870   0.18934   Biso      1.000     C          -0.20953899999999998          
         C9        1.0000    0.88269   0.68040   0.20807   Biso      1.000     C          0.204286  
         C10       1.0000    0.84796   0.57638   0.14279   Biso      1.000     C          -0.088312           
         C11       1.0000    0.92926   0.60478   0.12303   Biso      1.000     C          -0.046051           
         C12       1.0000    0.95372   0.56534   0.07848   Biso      1.000     C          0.6238640000000001  
         C13       1.0000    0.97204   0.91704   0.70014   Biso      1.000     C          -0.13416199999999998          
         C14       1.0000    0.93370   0.83974   0.70005   Biso      1.000     C          -0.1814   
         C15       1.0000    0.78879   0.61238   0.68348   Biso      1.000     C          -0.202626           
         C16       1.0000    0.68581   0.67284   0.64667   Biso      1.000     C          -0.08623600000000001          
         C17       1.0000    0.74595   0.70870   0.68934   Biso      1.000     C          -0.21007199999999998          
         C18       1.0000    0.79771   0.68040   0.70807   Biso      1.000     C          0.204786  
         C19       1.0000    0.72842   0.57638   0.64279   Biso      1.000     C          -0.086338           
         C20       1.0000    0.67552   0.60478   0.62303   Biso      1.000     C          -0.047254000000000004         
         C21       1.0000    0.61162   0.56534   0.57848   Biso      1.000     C          0.623846  
         C22       1.0000    0.02796   0.08296   0.70014   Biso      1.000     C          -0.134161           
         C23       1.0000    0.06630   0.16026   0.70005   Biso      1.000     C          -0.1814   
         C24       1.0000    0.21121   0.38762   0.68348   Biso      1.000     C          -0.202626           
         C25       1.0000    0.25405   0.29130   0.68934   Biso      1.000     C          -0.21007199999999998          
         C26       1.0000    0.20229   0.31960   0.70807   Biso      1.000     C          0.204786  
         C27       1.0000    0.27158   0.42362   0.64279   Biso      1.000     C          -0.086338           
         C28       1.0000    0.32448   0.39522   0.62303   Biso      1.000     C          -0.047254000000000004         
         C29       1.0000    0.94500   0.91704   0.79986   Biso      1.000     C          -0.135746           
         C30       1.0000    0.90604   0.83974   0.79995   Biso      1.000     C          -0.179894           
         C31       1.0000    0.15204   0.42362   0.14279   Biso      1.000     C          -0.088322           
         C32       1.0000    0.82359   0.61238   0.81652   Biso      1.000     C          -0.202515           
         C33       1.0000    0.11731   0.31960   0.20807   Biso      1.000     C          0.204271  
         C34       1.0000    0.01297   0.32716   0.14667   Biso      1.000     C          -0.086383           
         C35       1.0000    0.02118   0.04236   0.25000   Biso      1.000     C          0.061553  
         C36       1.0000    0.09989   0.19978   0.25000   Biso      1.000     C          0.188129  
         C37       1.0000    0.97882   0.95764   0.25000   Biso      1.000     C          0.06155599999999999           
         C38       1.0000    0.90011   0.80022   0.25000   Biso      1.000     C          0.188132  
         C39       1.0000    0.97882   0.95764   0.75000   Biso      1.000     C          0.061559  
         C40       1.0000    0.90011   0.80022   0.75000   Biso      1.000     C          0.188136  
         C41       1.0000    0.02118   0.04236   0.75000   Biso      1.000     C          0.06155700000000001           
         C42       1.0000    0.09989   0.19978   0.75000   Biso      1.000     C          0.188133  
         C43       1.0000    0.02796   0.08296   0.29986   Biso      1.000     C          -0.134158           
         C44       1.0000    0.06630   0.16026   0.29995   Biso      1.000     C          -0.181397           
         C45       1.0000    0.21121   0.38762   0.31652   Biso      1.000     C          -0.202626           
         C46       1.0000    0.31419   0.32716   0.35333   Biso      1.000     C          -0.08623600000000001          
         C47       1.0000    0.25405   0.29130   0.31066   Biso      1.000     C          -0.21007199999999998          
         C48       1.0000    0.20229   0.31960   0.29193   Biso      1.000     C          0.204785  
         C49       1.0000    0.27158   0.42362   0.35721   Biso      1.000     C          -0.086338           
         C50       1.0000    0.32448   0.39522   0.37697   Biso      1.000     C          -0.047254000000000004         
         C51       1.0000    0.38838   0.43466   0.42152   Biso      1.000     C          0.623846  
         C52       1.0000    0.97204   0.91704   0.29986   Biso      1.000     C          -0.134158           
         C53       1.0000    0.93370   0.83974   0.29995   Biso      1.000     C          -0.181397           
         C54       1.0000    0.78879   0.61238   0.31652   Biso      1.000     C          -0.202626           
         C55       1.0000    0.68581   0.67284   0.35333   Biso      1.000     C          -0.08623600000000001          
         C56       1.0000    0.74595   0.70870   0.31066   Biso      1.000     C          -0.21007199999999998          
         C57       1.0000    0.79771   0.68040   0.29193   Biso      1.000     C          0.204786  
         C58       1.0000    0.72842   0.57638   0.35721   Biso      1.000     C          -0.086338           
         C59       1.0000    0.67552   0.60478   0.37697   Biso      1.000     C          -0.047254000000000004         
         C60       1.0000    0.61162   0.56534   0.42152   Biso      1.000     C          0.623846  
         C61       1.0000    0.05500   0.08296   0.20014   Biso      1.000     C          -0.135743           
         C62       1.0000    0.09396   0.16026   0.20005   Biso      1.000     C          -0.179891           
         C63       1.0000    0.17641   0.38762   0.18348   Biso      1.000     C          -0.202503           
         C64       1.0000    0.03725   0.29130   0.18934   Biso      1.000     C          -0.20952300000000001          
         C65       1.0000    0.98703   0.67284   0.85333   Biso      1.000     C          -0.086384           
         C66       1.0000    0.38838   0.43466   0.57848   Biso      1.000     C          0.623846  
         C67       1.0000    0.88269   0.68040   0.79193   Biso      1.000     C          0.204272  
         C68       1.0000    0.04628   0.43466   0.92152   Biso      1.000     C          0.623865  
         C69       1.0000    0.07074   0.39522   0.87697   Biso      1.000     C          -0.046053           
         C70       1.0000    0.15204   0.42362   0.85721   Biso      1.000     C          -0.088322           
         C71       1.0000    0.11731   0.31960   0.79193   Biso      1.000     C          0.204271  
         C72       1.0000    0.03725   0.29130   0.81066   Biso      1.000     C          -0.20952300000000001          
         C73       1.0000    0.01297   0.32716   0.85333   Biso      1.000     C          -0.086383           
         C74       1.0000    0.96275   0.70870   0.81066   Biso      1.000     C          -0.20952300000000001          
         C75       1.0000    0.09396   0.16026   0.79995   Biso      1.000     C          -0.179891           
         C76       1.0000    0.17641   0.38762   0.81652   Biso      1.000     C          -0.202503           
         C77       1.0000    0.05500   0.08296   0.79986   Biso      1.000     C          -0.135743           
         C78       1.0000    0.95372   0.56534   0.92152   Biso      1.000     C          0.6238640000000001  
         C79       1.0000    0.92926   0.60478   0.87697   Biso      1.000     C          -0.046053           
         C80       1.0000    0.84796   0.57638   0.85721   Biso      1.000     C          -0.08831  
         H1        1.0000    0.34760   0.30540   0.63400   Biso      1.000     H          0.119031  
         H2        1.0000    0.17610   0.40820   0.69490   Biso      1.000     H          0.126462  
         H3        1.0000    0.06960   0.18620   0.66570   Biso      1.000     H          0.127243  
         H4        1.0000    0.00590   0.05720   0.66570   Biso      1.000     H          0.11141500000000001           
         H5        1.0000    0.75080   0.75360   0.70550   Biso      1.000     H          0.12201   
         H6        1.0000    0.24920   0.24640   0.70550   Biso      1.000     H          0.12201   
         H7        1.0000    0.65240   0.69460   0.63400   Biso      1.000     H          0.119031  
         H8        1.0000    0.82390   0.59180   0.69490   Biso      1.000     H          0.126462  
         H9        1.0000    0.93040   0.81380   0.66570   Biso      1.000     H          0.127243  
         H10       1.0000    0.72260   0.53080   0.62770   Biso      1.000     H          0.11526700000000001           
         H11       1.0000    0.27740   0.46920   0.62770   Biso      1.000     H          0.11526700000000001           
         H12       1.0000    0.76790   0.59180   0.80510   Biso      1.000     H          0.12693800000000002           
         H13       1.0000    0.88340   0.81380   0.83430   Biso      1.000     H          0.12666   
         H14       1.0000    0.04220   0.69460   0.86600   Biso      1.000     H          0.11822200000000001           
         H15       1.0000    0.00280   0.75360   0.79450   Biso      1.000     H          0.122077  
         H16       1.0000    0.80820   0.53080   0.87230   Biso      1.000     H          0.11635799999999999           
         H17       1.0000    0.99410   0.94280   0.66570   Biso      1.000     H          0.11141500000000001           
         H18       1.0000    0.11660   0.18620   0.83430   Biso      1.000     H          0.126659  
         H19       1.0000    0.23210   0.40820   0.80510   Biso      1.000     H          0.126937  
         H20       1.0000    0.95780   0.30540   0.86600   Biso      1.000     H          0.11822200000000001           
         H21       1.0000    0.19180   0.46920   0.87230   Biso      1.000     H          0.11635899999999999           
         H22       1.0000    0.99720   0.24640   0.79450   Biso      1.000     H          0.122077  
         H23       1.0000    0.94870   0.94280   0.83430   Biso      1.000     H          0.1124    
         H24       1.0000    0.05130   0.05720   0.83430   Biso      1.000     H          0.1124    
         H25       1.0000    0.00280   0.75360   0.20550   Biso      1.000     H          0.12207799999999999           
         H26       1.0000    0.04220   0.69460   0.13400   Biso      1.000     H          0.11822200000000001           
         H27       1.0000    0.00590   0.05720   0.33430   Biso      1.000     H          0.11141500000000001           
         H28       1.0000    0.06960   0.18620   0.33430   Biso      1.000     H          0.127243  
         H29       1.0000    0.17610   0.40820   0.30510   Biso      1.000     H          0.126462  
         H30       1.0000    0.34760   0.30540   0.36600   Biso      1.000     H          0.119031  
         H31       1.0000    0.80820   0.53080   0.12770   Biso      1.000     H          0.11635799999999999           
         H32       1.0000    0.27740   0.46920   0.37230   Biso      1.000     H          0.11526700000000001           
         H33       1.0000    0.99410   0.94280   0.33430   Biso      1.000     H          0.11141500000000001           
         H34       1.0000    0.93040   0.81380   0.33430   Biso      1.000     H          0.127243  
         H35       1.0000    0.82390   0.59180   0.30510   Biso      1.000     H          0.126462  
         H36       1.0000    0.65240   0.69460   0.36600   Biso      1.000     H          0.119031  
         H37       1.0000    0.24920   0.24640   0.29450   Biso      1.000     H          0.12201   
         H38       1.0000    0.72260   0.53080   0.37230   Biso      1.000     H          0.11526700000000001           
         H39       1.0000    0.75080   0.75360   0.29450   Biso      1.000     H          0.12201   
         H40       1.0000    0.76790   0.59180   0.19490   Biso      1.000     H          0.12693800000000002           
         H41       1.0000    0.94870   0.94280   0.16570   Biso      1.000     H          0.1124    
         H42       1.0000    0.19180   0.46920   0.12770   Biso      1.000     H          0.11635899999999999           
         H43       1.0000    0.88340   0.81380   0.16570   Biso      1.000     H          0.12666   
         H44       1.0000    0.95780   0.30540   0.13400   Biso      1.000     H          0.11822200000000001           
         H45       1.0000    0.23210   0.40820   0.19490   Biso      1.000     H          0.126937  
         H46       1.0000    0.11660   0.18620   0.16570   Biso      1.000     H          0.126659  
         H47       1.0000    0.05130   0.05720   0.16570   Biso      1.000     H          0.1124    
         H48       1.0000    0.99720   0.24640   0.20550   Biso      1.000     H          0.122077  
         N1        1.0000    0.85946   0.71892   0.75000   Biso      1.000     N          -0.157935           
         N2        1.0000    0.14054   0.28108   0.25000   Biso      1.000     N          -0.157934           
         N3        1.0000    0.14054   0.28108   0.75000   Biso      1.000     N          -0.157934           
         N4        1.0000    0.85946   0.71892   0.25000   Biso      1.000     N          -0.157935           
         O1        1.0000    0.56907   0.59776   0.56115   Biso      1.000     O          -0.593011           
         O2        1.0000    0.89860   0.50206   0.06143   Biso      1.000     O          -0.58121  
         O3        1.0000    0.02869   0.59776   0.06115   Biso      1.000     O          -0.592805           
         O4        1.0000    0.60346   0.50206   0.56143   Biso      1.000     O          -0.580546           
         O5        1.0000    0.60346   0.50206   0.43857   Biso      1.000     O          -0.580546           
         O6        1.0000    0.97131   0.40224   0.06115   Biso      1.000     O          -0.592805           
         O7        1.0000    0.10140   0.49794   0.06143   Biso      1.000     O          -0.58121  
         O8        1.0000    0.56907   0.59776   0.43885   Biso      1.000     O          -0.593011           
         O9        1.0000    0.43093   0.40224   0.56115   Biso      1.000     O          -0.593011           
         O10       1.0000    0.43093   0.40224   0.43885   Biso      1.000     O          -0.593011           
         O11       1.0000    0.02869   0.59776   0.93885   Biso      1.000     O          -0.592805           
         O12       1.0000    0.89860   0.50206   0.93857   Biso      1.000     O          -0.58121  
         O13       1.0000    0.97131   0.40224   0.93885   Biso      1.000     O          -0.592805           
         O14       1.0000    0.10140   0.49794   0.93857   Biso      1.000     O          -0.58121  
         O15       1.0000    0.39654   0.49794   0.43857   Biso      1.000     O          -0.580546           
         O16       1.0000    0.39654   0.49794   0.56143   Biso      1.000     O          -0.580546           
         Zn1       1.0000    0.52191   0.43656   0.50000   Biso      1.000     Zn          1.051187  
         Zn2       1.0000    0.47809   0.56344   0.50000   Biso      1.000     Zn          1.051187  
         Zn3       1.0000    0.91465   0.43656   0.00000   Biso      1.000     Zn          1.05176   
         Zn4       1.0000    0.08535   0.56344   0.00000   Biso      1.000     Zn          1.05176 