
##########################################################################
#               Crystallographic Information Format file
#               Produced by PyCifRW module
#
#  This is a CIF file.  CIF has been adopted by the International
#  Union of Crystallography as the standard for data archiving and
#  transmission.
#
#  For information on this file format, follow the CIF links at
#  http://www.iucr.org
##########################################################################

data_image0

_cell_length_a                          17.217
_cell_length_b                          22.9382
_cell_length_c                          22.9382
_cell_angle_alpha                       60.942
_cell_angle_beta                        67.9577
_cell_angle_gamma                       67.9576
_symmetry_space_group_name_H-M          'P 1'
_symmetry_int_tables_number             1
loop_
  _symmetry_equiv_pos_as_xyz
         'x, y, z' 
loop_
  _atom_site_label
  _atom_site_occupancy
  _atom_site_fract_x
  _atom_site_fract_y
  _atom_site_fract_z
  _atom_site_thermal_displace_type
  _atom_site_B_iso_or_equiv
  _atom_site_type_symbol
  _atom_site_charge
         C1        1.0000    0.93133   0.56879   0.32415   Biso      1.000     C          -0.040434           
         C2        1.0000    0.67573   0.82415   0.06879   Biso      1.000     C          -0.04084  
         C3        1.0000    0.68322   0.76764   0.05780   Biso      1.000     C          -0.083609           
         C4        1.0000    0.74169   0.70667   0.08315   Biso      1.000     C          -0.207812           
         C5        1.0000    0.79683   0.70175   0.11719   Biso      1.000     C          0.203211  
         C6        1.0000    0.79094   0.75875   0.12695   Biso      1.000     C          -0.201396           
         C7        1.0000    0.73158   0.81843   0.10357   Biso      1.000     C          -0.081937           
         C8        1.0000    0.20317   0.88281   0.29825   Biso      1.000     C          0.203207  
         C9        1.0000    0.61117   0.88904   0.04274   Biso      1.000     C          0.598948  
         C10       1.0000    0.25831   0.91685   0.29333   Biso      1.000     C          -0.207809           
         C11       1.0000    0.32427   0.93121   0.17585   Biso      1.000     C          -0.040862           
         C12       1.0000    0.38883   0.95726   0.11096   Biso      1.000     C          0.598961  
         C13       1.0000    0.06306   0.96798   0.37190   Biso      1.000     C          -0.183921           
         C14       1.0000    0.02499   0.00718   0.41024   Biso      1.000     C          -0.132075           
         C15       1.0000    0.26842   0.18157   0.89643   Biso      1.000     C          -0.081944           
         C16       1.0000    0.20906   0.24125   0.87305   Biso      1.000     C          -0.20139  
         C17       1.0000    0.20317   0.29825   0.88281   Biso      1.000     C          0.203211  
         C18       1.0000    0.31678   0.94220   0.23236   Biso      1.000     C          -0.083604           
         C19       1.0000    0.25831   0.29333   0.91685   Biso      1.000     C          -0.207816           
         C20       1.0000    0.93694   0.62810   0.03202   Biso      1.000     C          -0.183935           
         C21       1.0000    0.15358   0.68157   0.39643   Biso      1.000     C          -0.080868           
         C22       1.0000    0.90294   0.53202   0.12810   Biso      1.000     C          -0.183005           
         C23       1.0000    0.95705   0.54274   0.38904   Biso      1.000     C          0.598479  
         C24       1.0000    0.20906   0.87305   0.24125   Biso      1.000     C          -0.201356           
         C25       1.0000    0.99134   0.55780   0.26764   Biso      1.000     C          -0.085515           
         C26       1.0000    0.96849   0.58315   0.20667   Biso      1.000     C          -0.205967           
         C27       1.0000    0.88423   0.61719   0.20175   Biso      1.000     C          0.203984  
         C28       1.0000    0.82336   0.62695   0.25875   Biso      1.000     C          -0.205395           
         C29       1.0000    0.97501   0.58976   0.99282   Biso      1.000     C          -0.132069           
         C30       1.0000    0.84642   0.60357   0.31843   Biso      1.000     C          -0.08083  
         C31       1.0000    0.09706   0.87190   0.46798   Biso      1.000     C          -0.183013           
         C32       1.0000    0.04295   0.61096   0.45726   Biso      1.000     C          0.598464  
         C33       1.0000    0.06867   0.67585   0.43121   Biso      1.000     C          -0.040421           
         C34       1.0000    0.00866   0.73236   0.44220   Biso      1.000     C          -0.085484           
         C35       1.0000    0.03151   0.79333   0.41685   Biso      1.000     C          -0.205987           
         C36       1.0000    0.11577   0.79825   0.38281   Biso      1.000     C          0.203985  
         C37       1.0000    0.17664   0.74125   0.37305   Biso      1.000     C          -0.205381           
         C38       1.0000    0.05759   0.91024   0.50718   Biso      1.000     C          -0.132619           
         C39       1.0000    0.31678   0.23236   0.94220   Biso      1.000     C          -0.083607           
         C40       1.0000    0.32427   0.17585   0.93121   Biso      1.000     C          -0.040838           
         C41       1.0000    0.38883   0.11096   0.95726   Biso      1.000     C          0.598948  
         C42       1.0000    0.79094   0.12695   0.75875   Biso      1.000     C          -0.201357           
         C43       1.0000    0.79683   0.11719   0.70175   Biso      1.000     C          0.203207  
         C44       1.0000    0.74169   0.08315   0.70667   Biso      1.000     C          -0.207809           
         C45       1.0000    0.68322   0.05780   0.76764   Biso      1.000     C          -0.083606           
         C46       1.0000    0.67573   0.06879   0.82415   Biso      1.000     C          -0.040859           
         C47       1.0000    0.61117   0.04274   0.88904   Biso      1.000     C          0.598961  
         C48       1.0000    0.93694   0.03202   0.62810   Biso      1.000     C          -0.18392  
         C49       1.0000    0.73158   0.10357   0.81843   Biso      1.000     C          -0.081933           
         C50       1.0000    0.97501   0.99282   0.58976   Biso      1.000     C          -0.132075           
         C51       1.0000    0.97913   0.52087   0.02087   Biso      1.000     C          0.062777  
         C52       1.0000    0.09987   0.90013   0.40013   Biso      1.000     C          0.197137  
         C53       1.0000    0.02087   0.97913   0.47913   Biso      1.000     C          0.062798  
         C54       1.0000    0.09987   0.40013   0.90013   Biso      1.000     C          0.197131  
         C55       1.0000    0.02087   0.47913   0.97913   Biso      1.000     C          0.06277   
         C56       1.0000    0.90013   0.09987   0.59987   Biso      1.000     C          0.197123  
         C57       1.0000    0.97913   0.02087   0.52087   Biso      1.000     C          0.062792  
         C58       1.0000    0.90013   0.59987   0.09987   Biso      1.000     C          0.197156  
         C59       1.0000    0.05759   0.50718   0.91024   Biso      1.000     C          -0.132621           
         C60       1.0000    0.09706   0.46798   0.87190   Biso      1.000     C          -0.182989           
         C61       1.0000    0.04295   0.45726   0.61096   Biso      1.000     C          0.598479  
         C62       1.0000    0.06306   0.37190   0.96798   Biso      1.000     C          -0.183922           
         C63       1.0000    0.02499   0.41024   0.00718   Biso      1.000     C          -0.132065           
         C64       1.0000    0.84642   0.31843   0.60357   Biso      1.000     C          -0.080868           
         C65       1.0000    0.82336   0.25875   0.62695   Biso      1.000     C          -0.205382           
         C66       1.0000    0.88423   0.20175   0.61719   Biso      1.000     C          0.203984  
         C67       1.0000    0.96849   0.20667   0.58315   Biso      1.000     C          -0.20599  
         C68       1.0000    0.99134   0.26764   0.55780   Biso      1.000     C          -0.085481           
         C69       1.0000    0.93133   0.32415   0.56879   Biso      1.000     C          -0.040421           
         C70       1.0000    0.95705   0.38904   0.54274   Biso      1.000     C          0.598464  
         C71       1.0000    0.90294   0.12810   0.53202   Biso      1.000     C          -0.182999           
         C72       1.0000    0.94241   0.08976   0.49282   Biso      1.000     C          -0.132614           
         C73       1.0000    0.15358   0.39643   0.68157   Biso      1.000     C          -0.080839           
         C74       1.0000    0.17664   0.37305   0.74125   Biso      1.000     C          -0.205386           
         C75       1.0000    0.11577   0.38281   0.79825   Biso      1.000     C          0.203982  
         C76       1.0000    0.03151   0.41685   0.79333   Biso      1.000     C          -0.20597  
         C77       1.0000    0.00866   0.44220   0.73236   Biso      1.000     C          -0.085511           
         C78       1.0000    0.06867   0.43121   0.67585   Biso      1.000     C          -0.040434           
         C79       1.0000    0.94241   0.49282   0.08976   Biso      1.000     C          -0.132619           
         C80       1.0000    0.26842   0.89643   0.18157   Biso      1.000     C          -0.081933           
         Cu1       1.0000    0.47607   0.97264   0.97264   Biso      1.000     Cu          0.867313  
         Cu2       1.0000    0.92135   0.52736   0.52736   Biso      1.000     Cu          0.86573   
         Cu3       1.0000    0.07865   0.47264   0.47264   Biso      1.000     Cu          0.86574   
         Cu4       1.0000    0.52393   0.02736   0.02736   Biso      1.000     Cu          0.867319  
         H1        1.0000    0.99840   0.94610   0.61130   Biso      1.000     H          0.111185  
         H2        1.0000    0.17210   0.85040   0.24400   Biso      1.000     H          0.126729  
         H3        1.0000    0.27190   0.88910   0.14410   Biso      1.000     H          0.121133  
         H4        1.0000    0.94420   0.44610   0.11130   Biso      1.000     H          0.110776  
         H5        1.0000    0.87770   0.51130   0.17450   Biso      1.000     H          0.12393   
         H6        1.0000    0.04760   0.53310   0.27090   Biso      1.000     H          0.122763  
         H7        1.0000    0.00990   0.57740   0.16860   Biso      1.000     H          0.126546  
         H8        1.0000    0.76650   0.64960   0.25600   Biso      1.000     H          0.128569  
         H9        1.0000    0.05580   0.88870   0.55390   Biso      1.000     H          0.110772  
         H10       1.0000    0.12230   0.82550   0.48870   Biso      1.000     H          0.123929  
         H11       1.0000    0.99010   0.83140   0.42260   Biso      1.000     H          0.126544  
         H12       1.0000    0.25590   0.92260   0.33140   Biso      1.000     H          0.127989  
         H13       1.0000    0.23350   0.74400   0.35040   Biso      1.000     H          0.128569  
         H14       1.0000    0.19490   0.64410   0.38910   Biso      1.000     H          0.121684  
         H15       1.0000    0.99840   0.61130   0.94610   Biso      1.000     H          0.111192  
         H16       1.0000    0.93650   0.67450   0.01130   Biso      1.000     H          0.124029  
         H17       1.0000    0.64840   0.77090   0.03310   Biso      1.000     H          0.122638  
         H18       1.0000    0.74410   0.66860   0.07740   Biso      1.000     H          0.127992  
         H19       1.0000    0.82790   0.75600   0.14960   Biso      1.000     H          0.126765  
         H20       1.0000    0.72810   0.85590   0.11090   Biso      1.000     H          0.121135  
         H21       1.0000    0.95240   0.72910   0.46690   Biso      1.000     H          0.122758  
         H22       1.0000    0.35160   0.96690   0.22910   Biso      1.000     H          0.122639  
         H23       1.0000    0.80510   0.61090   0.35590   Biso      1.000     H          0.121674  
         H24       1.0000    0.00160   0.05390   0.38870   Biso      1.000     H          0.111185  
         H25       1.0000    0.93650   0.01130   0.67450   Biso      1.000     H          0.124029  
         H26       1.0000    0.64840   0.03310   0.77090   Biso      1.000     H          0.122639  
         H27       1.0000    0.06350   0.98870   0.32550   Biso      1.000     H          0.124029  
         H28       1.0000    0.82790   0.14960   0.75600   Biso      1.000     H          0.12673   
         H29       1.0000    0.72810   0.11090   0.85590   Biso      1.000     H          0.121134  
         H30       1.0000    0.05580   0.55390   0.88870   Biso      1.000     H          0.110777  
         H31       1.0000    0.12230   0.48870   0.82550   Biso      1.000     H          0.12393   
         H32       1.0000    0.95240   0.46690   0.72910   Biso      1.000     H          0.122764  
         H33       1.0000    0.99010   0.42260   0.83140   Biso      1.000     H          0.126547  
         H34       1.0000    0.23350   0.35040   0.74400   Biso      1.000     H          0.128569  
         H35       1.0000    0.19490   0.38910   0.64410   Biso      1.000     H          0.121675  
         H36       1.0000    0.94420   0.11130   0.44610   Biso      1.000     H          0.110772  
         H37       1.0000    0.74410   0.07740   0.66860   Biso      1.000     H          0.12799   
         H38       1.0000    0.04760   0.27090   0.53310   Biso      1.000     H          0.122758  
         H39       1.0000    0.87770   0.17450   0.51130   Biso      1.000     H          0.123929  
         H40       1.0000    0.17210   0.24400   0.85040   Biso      1.000     H          0.126765  
         H41       1.0000    0.25590   0.33140   0.92260   Biso      1.000     H          0.127992  
         H42       1.0000    0.35160   0.22910   0.96690   Biso      1.000     H          0.122639  
         H43       1.0000    0.06350   0.32550   0.98870   Biso      1.000     H          0.12403   
         H44       1.0000    0.27190   0.14410   0.88910   Biso      1.000     H          0.121135  
         H45       1.0000    0.80510   0.35590   0.61090   Biso      1.000     H          0.121684  
         H46       1.0000    0.76650   0.25600   0.64960   Biso      1.000     H          0.12857   
         H47       1.0000    0.00990   0.16860   0.57740   Biso      1.000     H          0.126545  
         H48       1.0000    0.00160   0.38870   0.05390   Biso      1.000     H          0.111192  
         N1        1.0000    0.85998   0.64002   0.14002   Biso      1.000     N          -0.165635           
         N2        1.0000    0.14002   0.85998   0.35998   Biso      1.000     N          -0.165634           
         N3        1.0000    0.14002   0.35998   0.85998   Biso      1.000     N          -0.165634           
         N4        1.0000    0.85998   0.14002   0.64002   Biso      1.000     N          -0.165632           
         O1        1.0000    0.10095   0.44347   0.56203   Biso      1.000     O          -0.549112           
         O2        1.0000    0.43425   0.10880   0.98968   Biso      1.000     O          -0.53545  
         O3        1.0000    0.96727   0.48968   0.60880   Biso      1.000     O          -0.53414  
         O4        1.0000    0.89905   0.43797   0.55653   Biso      1.000     O          -0.54911  
         O5        1.0000    0.03273   0.39120   0.51032   Biso      1.000     O          -0.534136           
         O6        1.0000    0.39355   0.06203   0.94347   Biso      1.000     O          -0.549377           
         O7        1.0000    0.39355   0.94347   0.06203   Biso      1.000     O          -0.549378           
         O8        1.0000    0.56575   0.89120   0.01032   Biso      1.000     O          -0.535448           
         O9        1.0000    0.89905   0.55653   0.43797   Biso      1.000     O          -0.549114           
         O10       1.0000    0.03273   0.51032   0.39120   Biso      1.000     O          -0.53414  
         O11       1.0000    0.10095   0.56203   0.44347   Biso      1.000     O          -0.549109           
         O12       1.0000    0.96727   0.60880   0.48968   Biso      1.000     O          -0.534136           
         O13       1.0000    0.60645   0.93797   0.05653   Biso      1.000     O          -0.549379           
         O14       1.0000    0.56575   0.01032   0.89120   Biso      1.000     O          -0.53546  
         O15       1.0000    0.43425   0.98968   0.10880   Biso      1.000     O          -0.535461           
         O16       1.0000    0.60645   0.05653   0.93797   Biso      1.000     O          -0.54938 