
##########################################################################
#               Crystallographic Information Format file
#               Produced by PyCifRW module
#
#  This is a CIF file.  CIF has been adopted by the International
#  Union of Crystallography as the standard for data archiving and
#  transmission.
#
#  For information on this file format, follow the CIF links at
#  http://www.iucr.org
##########################################################################

data_image0

_cell_length_a                          10.4772
_cell_length_b                          15.6753
_cell_length_c                          12.7708
_cell_angle_alpha                       90
_cell_angle_beta                        102.047
_cell_angle_gamma                       90
_symmetry_space_group_name_H-M          'P 1'
_symmetry_int_tables_number             1
loop_
  _symmetry_equiv_pos_as_xyz
         'x, y, z' 
loop_
  _atom_site_label
  _atom_site_occupancy
  _atom_site_fract_x
  _atom_site_fract_y
  _atom_site_fract_z
  _atom_site_thermal_displace_type
  _atom_site_B_iso_or_equiv
  _atom_site_type_symbol
  _atom_site_charge
         C1        1.0000    0.36830   0.87610   0.38440   Biso      1.000     C          0.616333  
         C2        1.0000    0.18980   0.68004   0.44280   Biso      1.000     C          -0.019163           
         C3        1.0000    0.24720   0.74326   0.39240   Biso      1.000     C          -0.114444           
         C4        1.0000    0.80600   0.68631   0.94740   Biso      1.000     C          -0.006581999999999999         
         C5        1.0000    0.63170   0.12390   0.61560   Biso      1.000     C          0.616333  
         C6        1.0000    0.75280   0.25674   0.60760   Biso      1.000     C          -0.114444           
         C7        1.0000    0.81020   0.31996   0.55720   Biso      1.000     C          -0.019163           
         C8        1.0000    0.69400   0.18631   0.55260   Biso      1.000     C          -0.006581999999999999         
         C9        1.0000    0.62250   0.10882   0.37660   Biso      1.000     C          0.570051  
         C10       1.0000    0.80600   0.31369   0.44740   Biso      1.000     C          -0.006581999999999999         
         C11       1.0000    0.68980   0.18004   0.44280   Biso      1.000     C          -0.019163           
         C12       1.0000    0.74720   0.24326   0.39240   Biso      1.000     C          -0.114445           
         C13       1.0000    0.86830   0.37610   0.38440   Biso      1.000     C          0.616333  
         C14       1.0000    0.87750   0.39118   0.62340   Biso      1.000     C          0.570051  
         C15       1.0000    0.12250   0.39118   0.87660   Biso      1.000     C          0.570051  
         C16       1.0000    0.30600   0.18631   0.94740   Biso      1.000     C          -0.0065829999999999994        
         C17       1.0000    0.18980   0.31996   0.94280   Biso      1.000     C          -0.019163           
         C18       1.0000    0.24720   0.25674   0.89240   Biso      1.000     C          -0.114445           
         C19       1.0000    0.36830   0.12390   0.88440   Biso      1.000     C          0.616333  
         C20       1.0000    0.86830   0.62390   0.88440   Biso      1.000     C          0.616333  
         C21       1.0000    0.74720   0.75674   0.89240   Biso      1.000     C          -0.114445           
         C22       1.0000    0.62250   0.89118   0.87660   Biso      1.000     C          0.570051  
         C23       1.0000    0.30600   0.81369   0.44740   Biso      1.000     C          -0.0065829999999999994        
         C24       1.0000    0.12250   0.60882   0.37660   Biso      1.000     C          0.570051  
         C25       1.0000    0.68980   0.81996   0.94280   Biso      1.000     C          -0.019163           
         C26       1.0000    0.37750   0.89118   0.62340   Biso      1.000     C          0.570051  
         C27       1.0000    0.81020   0.68004   0.05720   Biso      1.000     C          -0.019163           
         C28       1.0000    0.75280   0.74326   0.10760   Biso      1.000     C          -0.114445           
         C29       1.0000    0.63170   0.87610   0.11560   Biso      1.000     C          0.616333  
         C30       1.0000    0.31020   0.81996   0.55720   Biso      1.000     C          -0.019163           
         C31       1.0000    0.19400   0.68631   0.55260   Biso      1.000     C          -0.006581999999999999         
         C32       1.0000    0.69400   0.81369   0.05260   Biso      1.000     C          -0.0065829999999999994        
         C33       1.0000    0.25280   0.75674   0.60760   Biso      1.000     C          -0.114445           
         C34       1.0000    0.37750   0.10882   0.12340   Biso      1.000     C          0.57005   
         C35       1.0000    0.87750   0.60882   0.12340   Biso      1.000     C          0.570051  
         C36       1.0000    0.31020   0.18004   0.05720   Biso      1.000     C          -0.019163           
         C37       1.0000    0.25280   0.24326   0.10760   Biso      1.000     C          -0.114445           
         C38       1.0000    0.13170   0.37610   0.11560   Biso      1.000     C          0.616333  
         C39       1.0000    0.13170   0.62390   0.61560   Biso      1.000     C          0.616333  
         C40       1.0000    0.19400   0.31369   0.05260   Biso      1.000     C          -0.0065829999999999994        
         H1        1.0000    0.24606   0.73803   0.31728   Biso      1.000     H          0.139747  
         H2        1.0000    0.74606   0.23803   0.31728   Biso      1.000     H          0.139747  
         H3        1.0000    0.75394   0.26197   0.68272   Biso      1.000     H          0.139747  
         H4        1.0000    0.74606   0.76197   0.81728   Biso      1.000     H          0.139747  
         H5        1.0000    0.24606   0.26197   0.81728   Biso      1.000     H          0.139747  
         H6        1.0000    0.25394   0.23803   0.18272   Biso      1.000     H          0.139747  
         H7        1.0000    0.25394   0.76197   0.68272   Biso      1.000     H          0.139747  
         H8        1.0000    0.75394   0.73803   0.18272   Biso      1.000     H          0.139747  
         O1        1.0000    0.85590   0.40354   0.71667   Biso      1.000     O          -0.575163           
         O2        1.0000    0.35590   0.90354   0.71667   Biso      1.000     O          -0.575163           
         O3        1.0000    0.95520   0.43855   0.58725   Biso      1.000     O          -0.5474479999999999           
         O4        1.0000    0.67590   0.05174   0.64020   Biso      1.000     O          -0.5627939999999999           
         O5        1.0000    0.17590   0.55174   0.64020   Biso      1.000     O          -0.5627939999999999           
         O6        1.0000    0.45520   0.93855   0.58725   Biso      1.000     O          -0.5474479999999999           
         O7        1.0000    0.03380   0.65088   0.64790   Biso      1.000     O          -0.602088           
         O8        1.0000    0.53380   0.15088   0.64790   Biso      1.000     O          -0.602088           
         O9        1.0000    0.85590   0.59646   0.21667   Biso      1.000     O          -0.575164           
         O10       1.0000    0.46620   0.15088   0.85210   Biso      1.000     O          -0.602089           
         O11       1.0000    0.54480   0.93855   0.91275   Biso      1.000     O          -0.5474479999999999           
         O12       1.0000    0.53380   0.84912   0.14790   Biso      1.000     O          -0.602089           
         O13       1.0000    0.95520   0.56145   0.08725   Biso      1.000     O          -0.5474479999999999           
         O14       1.0000    0.67590   0.94826   0.14020   Biso      1.000     O          -0.5627949999999999           
         O15       1.0000    0.35590   0.09646   0.21667   Biso      1.000     O          -0.575164           
         O16       1.0000    0.03380   0.34912   0.14790   Biso      1.000     O          -0.602089           
         O17       1.0000    0.45520   0.06145   0.08725   Biso      1.000     O          -0.5474479999999999           
         O18       1.0000    0.17590   0.44826   0.14020   Biso      1.000     O          -0.5627949999999999           
         O19       1.0000    0.14410   0.59646   0.28333   Biso      1.000     O          -0.575163           
         O20       1.0000    0.46620   0.84912   0.35210   Biso      1.000     O          -0.602089           
         O21       1.0000    0.82410   0.55174   0.85980   Biso      1.000     O          -0.5627949999999999           
         O22       1.0000    0.04480   0.56145   0.41275   Biso      1.000     O          -0.5474479999999999           
         O23       1.0000    0.64410   0.09646   0.28333   Biso      1.000     O          -0.575163           
         O24       1.0000    0.96620   0.34912   0.35210   Biso      1.000     O          -0.602088           
         O25       1.0000    0.54480   0.06145   0.41275   Biso      1.000     O          -0.5474479999999999           
         O26       1.0000    0.82410   0.44826   0.35980   Biso      1.000     O          -0.5627939999999999           
         O27       1.0000    0.14410   0.40354   0.78333   Biso      1.000     O          -0.575164           
         O28       1.0000    0.04480   0.43855   0.91275   Biso      1.000     O          -0.5474479999999999           
         O29       1.0000    0.32410   0.05174   0.85980   Biso      1.000     O          -0.5627949999999999           
         O30       1.0000    0.64410   0.90354   0.78333   Biso      1.000     O          -0.575164           
         O31       1.0000    0.96620   0.65088   0.85210   Biso      1.000     O          -0.602089           
         O32       1.0000    0.32410   0.94826   0.35980   Biso      1.000     O          -0.5627939999999999           
         U1        1.0000    0.00000   0.52825   0.75000   Biso      1.000     U          2.203109  
         U2        1.0000    0.00000   0.47175   0.25000   Biso      1.000     U          2.203109  
         U3        1.0000    0.50000   0.97175   0.25000   Biso      1.000     U          2.203109  
         U4        1.0000    0.50000   0.02825   0.75000   Biso      1.000     U          2.2031080000000003 