
##########################################################################
#               Crystallographic Information Format file
#               Produced by PyCifRW module
#
#  This is a CIF file.  CIF has been adopted by the International
#  Union of Crystallography as the standard for data archiving and
#  transmission.
#
#  For information on this file format, follow the CIF links at
#  http://www.iucr.org
##########################################################################

data_image0

_cell_length_a                          15.7125
_cell_length_b                          15.7125
_cell_length_c                          26.1359
_cell_angle_alpha                       107.493
_cell_angle_beta                        107.493
_cell_angle_gamma                       90
_symmetry_space_group_name_H-M          'P 1'
_symmetry_int_tables_number             1
loop_
  _symmetry_equiv_pos_as_xyz
         'x, y, z' 
loop_
  _atom_site_label
  _atom_site_occupancy
  _atom_site_fract_x
  _atom_site_fract_y
  _atom_site_fract_z
  _atom_site_thermal_displace_type
  _atom_site_B_iso_or_equiv
  _atom_site_type_symbol
  _atom_site_charge
         C1        1.0000    0.41930   0.77300   0.55780   Biso      1.000     C          -0.059642           
         C2        1.0000    0.13850   0.78480   0.55780   Biso      1.000     C          -0.061035           
         C3        1.0000    0.05300   0.74050   0.51280   Biso      1.000     C          -0.03167  
         C4        1.0000    0.71634   0.23604   0.29468   Biso      1.000     C          0.600899  
         C5        1.0000    0.90656   0.35056   0.42592   Biso      1.000     C          -0.126287           
         C6        1.0000    0.76960   0.39770   0.34640   Biso      1.000     C          -0.142481           
         C7        1.0000    0.75712   0.59142   0.35464   Biso      1.000     C          0.615887  
         C8        1.0000    0.89205   0.62065   0.43710   Biso      1.000     C          -0.216982           
         C9        1.0000    0.95773   0.59763   0.47826   Biso      1.000     C          0.228505  
         C10       1.0000    0.90123   0.44243   0.43226   Biso      1.000     C          0.052593  
         C11       1.0000    0.83026   0.46646   0.39092   Biso      1.000     C          0.056493  
         C12       1.0000    0.96207   0.50937   0.47694   Biso      1.000     C          -0.052949           
         C13       1.0000    0.53240   0.09630   0.38220   Biso      1.000     C          -0.096887           
         C14       1.0000    0.82747   0.55817   0.39574   Biso      1.000     C          -0.017428           
         C15       1.0000    0.84980   0.28590   0.38220   Biso      1.000     C          -0.098819           
         C16       1.0000    0.03480   0.16930   0.05780   Biso      1.000     C          -0.060812           
         C17       1.0000    0.99050   0.20980   0.01280   Biso      1.000     C          -0.032268           
         C18       1.0000    0.48604   0.32834   0.79468   Biso      1.000     C          0.601756  
         C19       1.0000    0.60056   0.26936   0.92592   Biso      1.000     C          -0.129722           
         C20       1.0000    0.64770   0.32680   0.84640   Biso      1.000     C          -0.141938           
         C21       1.0000    0.84142   0.34752   0.85464   Biso      1.000     C          0.616691  
         C22       1.0000    0.87065   0.29505   0.93710   Biso      1.000     C          -0.217986           
         C23       1.0000    0.84763   0.27053   0.97826   Biso      1.000     C          0.228167  
         C24       1.0000    0.69243   0.28103   0.93226   Biso      1.000     C          0.054442  
         C25       1.0000    0.71646   0.31066   0.89092   Biso      1.000     C          0.05686   
         C26       1.0000    0.77974   0.30914   0.34188   Biso      1.000     C          -0.004791           
         C27       1.0000    0.75937   0.26487   0.97694   Biso      1.000     C          -0.052613           
         C28       1.0000    0.56214   0.03274   0.34188   Biso      1.000     C          -0.005228           
         C29       1.0000    0.51487   0.96757   0.47694   Biso      1.000     C          -0.051624           
         C30       1.0000    0.21520   0.86150   0.44220   Biso      1.000     C          -0.059894           
         C31       1.0000    0.25950   0.94700   0.48720   Biso      1.000     C          -0.031548           
         C32       1.0000    0.76396   0.28366   0.70532   Biso      1.000     C          0.600908  
         C33       1.0000    0.64944   0.09344   0.57408   Biso      1.000     C          -0.126465           
         C34       1.0000    0.60230   0.23040   0.65360   Biso      1.000     C          -0.142556           
         C35       1.0000    0.40858   0.24288   0.64536   Biso      1.000     C          0.615888  
         C36       1.0000    0.37935   0.10795   0.56290   Biso      1.000     C          -0.216851           
         C37       1.0000    0.40237   0.04227   0.52174   Biso      1.000     C          0.227971  
         C38       1.0000    0.55757   0.09877   0.56774   Biso      1.000     C          0.052779  
         C39       1.0000    0.53354   0.16974   0.60908   Biso      1.000     C          0.056564  
         C40       1.0000    0.49063   0.03793   0.52306   Biso      1.000     C          -0.053233           
         C41       1.0000    0.56827   0.83757   0.39574   Biso      1.000     C          -0.017614           
         C42       1.0000    0.44183   0.17253   0.60426   Biso      1.000     C          -0.017658           
         C43       1.0000    0.71410   0.15020   0.61780   Biso      1.000     C          -0.098815           
         C44       1.0000    0.16243   0.43173   0.60426   Biso      1.000     C          -0.01731  
         C45       1.0000    0.45980   0.77230   0.51280   Biso      1.000     C          -0.032602           
         C46       1.0000    0.57834   0.05864   0.29468   Biso      1.000     C          0.602017  
         C47       1.0000    0.51936   0.07536   0.42592   Biso      1.000     C          -0.128491           
         C48       1.0000    0.57680   0.94870   0.34640   Biso      1.000     C          -0.143632           
         C49       1.0000    0.59752   0.76322   0.35464   Biso      1.000     C          0.618007  
         C50       1.0000    0.54505   0.81645   0.43710   Biso      1.000     C          -0.218498           
         C51       1.0000    0.52053   0.88063   0.47826   Biso      1.000     C          0.226822  
         C52       1.0000    0.53103   0.98983   0.43226   Biso      1.000     C          0.052043  
         C53       1.0000    0.56066   0.92446   0.39092   Biso      1.000     C          0.057539  
         C54       1.0000    0.69086   0.22026   0.65812   Biso      1.000     C          -0.004828           
         C55       1.0000    0.80817   0.31827   0.89574   Biso      1.000     C          -0.016747           
         C56       1.0000    0.55914   0.31214   0.84188   Biso      1.000     C          -0.004847           
         C57       1.0000    0.53590   0.28240   0.88220   Biso      1.000     C          -0.097874           
         C58       1.0000    0.68934   0.28354   0.10908   Biso      1.000     C          0.056859  
         C59       1.0000    0.71897   0.30757   0.06774   Biso      1.000     C          0.054445  
         C60       1.0000    0.72947   0.15237   0.02174   Biso      1.000     C          0.22817   
         C61       1.0000    0.70495   0.12935   0.06290   Biso      1.000     C          -0.218001           
         C62       1.0000    0.65248   0.15858   0.14536   Biso      1.000     C          0.616694  
         C63       1.0000    0.67320   0.35230   0.15360   Biso      1.000     C          -0.141935           
         C64       1.0000    0.73064   0.39944   0.07408   Biso      1.000     C          -0.129728           
         C65       1.0000    0.67166   0.51396   0.20532   Biso      1.000     C          0.601757  
         C66       1.0000    0.79020   0.00950   0.98720   Biso      1.000     C          -0.032278           
         C67       1.0000    0.83070   0.96520   0.94220   Biso      1.000     C          -0.060824           
         C68       1.0000    0.40020   0.65370   0.11780   Biso      1.000     C          -0.097194           
         C69       1.0000    0.73513   0.24063   0.02306   Biso      1.000     C          -0.052632           
         C70       1.0000    0.47026   0.71726   0.15812   Biso      1.000     C          -0.004622           
         C71       1.0000    0.28793   0.78243   0.02306   Biso      1.000     C          -0.052234           
         C72       1.0000    0.41974   0.82554   0.10908   Biso      1.000     C          0.055716  
         C73       1.0000    0.34877   0.76017   0.06774   Biso      1.000     C          0.052902  
         C74       1.0000    0.29227   0.86937   0.02174   Biso      1.000     C          0.227946  
         C75       1.0000    0.35795   0.93355   0.06290   Biso      1.000     C          -0.218008           
         C76       1.0000    0.49288   0.98678   0.14536   Biso      1.000     C          0.616046  
         C77       1.0000    0.48040   0.80130   0.15360   Biso      1.000     C          -0.141807           
         C78       1.0000    0.34344   0.67464   0.07408   Biso      1.000     C          -0.129748           
         C79       1.0000    0.53366   0.69136   0.20532   Biso      1.000     C          0.599687  
         C80       1.0000    0.19700   0.97770   0.98720   Biso      1.000     C          -0.032704           
         C81       1.0000    0.11150   0.97700   0.94220   Biso      1.000     C          -0.06053  
         C82       1.0000    0.42253   0.91243   0.10426   Biso      1.000     C          -0.016866           
         C83       1.0000    0.68173   0.19183   0.10426   Biso      1.000     C          -0.016742           
         C84       1.0000    0.68786   0.44086   0.15812   Biso      1.000     C          -0.004851           
         C85       1.0000    0.71760   0.46410   0.11780   Biso      1.000     C          -0.09788  
         C86       1.0000    0.02300   0.88850   0.05780   Biso      1.000     C          -0.06053  
         C87       1.0000    0.02230   0.80300   0.01280   Biso      1.000     C          -0.032709           
         C88       1.0000    0.30864   0.46634   0.79468   Biso      1.000     C          0.599693  
         C89       1.0000    0.32536   0.65656   0.92592   Biso      1.000     C          -0.129765           
         C90       1.0000    0.19870   0.51960   0.84640   Biso      1.000     C          -0.141804           
         C91       1.0000    0.01322   0.50712   0.85464   Biso      1.000     C          0.616051  
         C92       1.0000    0.06645   0.64205   0.93710   Biso      1.000     C          -0.21801  
         C93       1.0000    0.13063   0.70773   0.97826   Biso      1.000     C          0.227944  
         C94       1.0000    0.23983   0.65123   0.93226   Biso      1.000     C          0.052906  
         C95       1.0000    0.17446   0.58026   0.89092   Biso      1.000     C          0.055716  
         C96       1.0000    0.21757   0.71207   0.97694   Biso      1.000     C          -0.052231           
         C97       1.0000    0.08757   0.57747   0.89574   Biso      1.000     C          -0.016867           
         C98       1.0000    0.28274   0.52974   0.84188   Biso      1.000     C          -0.004621           
         C99       1.0000    0.34630   0.59980   0.88220   Biso      1.000     C          -0.097182           
         C100      1.0000    0.03243   0.48513   0.52306   Biso      1.000     C          -0.051929           
         C101      1.0000    0.07554   0.43934   0.60908   Biso      1.000     C          0.057246  
         C102      1.0000    0.01017   0.46897   0.56774   Biso      1.000     C          0.052008  
         C103      1.0000    0.11937   0.47947   0.52174   Biso      1.000     C          0.227428  
         C104      1.0000    0.18355   0.45495   0.56290   Biso      1.000     C          -0.218145           
         C105      1.0000    0.23678   0.40248   0.64536   Biso      1.000     C          0.617915  
         C106      1.0000    0.05130   0.42320   0.65360   Biso      1.000     C          -0.143481           
         C107      1.0000    0.92464   0.48064   0.57408   Biso      1.000     C          -0.128456           
         C108      1.0000    0.94136   0.42166   0.70532   Biso      1.000     C          0.601935  
         C109      1.0000    0.22770   0.54020   0.48720   Biso      1.000     C          -0.032566           
         C110      1.0000    0.22700   0.58070   0.44220   Biso      1.000     C          -0.060534           
         C111      1.0000    0.90370   0.46760   0.61780   Biso      1.000     C          -0.096822           
         C112      1.0000    0.96726   0.43786   0.65812   Biso      1.000     C          -0.005282           
         Cu1       1.0000    0.30330   0.29646   0.71826   Biso      1.000     Cu          0.877663  
         Cu2       1.0000    0.41496   0.42180   0.71826   Biso      1.000     Cu          0.877761  
         Cu3       1.0000    0.54646   0.16496   0.21826   Biso      1.000     Cu          0.878357  
         Cu4       1.0000    0.67180   0.05330   0.21826   Biso      1.000     Cu          0.87657   
         Cu5       1.0000    0.83504   0.45354   0.78174   Biso      1.000     Cu          0.878362  
         Cu6       1.0000    0.94670   0.32820   0.78174   Biso      1.000     Cu          0.876634  
         Cu7       1.0000    0.57820   0.58504   0.28174   Biso      1.000     Cu          0.877635  
         Cu8       1.0000    0.70354   0.69670   0.28174   Biso      1.000     Cu          0.87786   
         H1        1.0000    0.29930   0.63090   0.04720   Biso      1.000     H          0.117453  
         H2        1.0000    0.89180   0.68010   0.43760   Biso      1.000     H          0.146903  
         H3        1.0000    0.85690   0.22590   0.37860   Biso      1.000     H          0.130106  
         H4        1.0000    0.58370   0.25210   0.95280   Biso      1.000     H          0.117664  
         H5        1.0000    0.66260   0.34730   0.82000   Biso      1.000     H          0.132982  
         H6        1.0000    0.00750   0.64180   0.93760   Biso      1.000     H          0.148056  
         H7        1.0000    0.47590   0.27170   0.87860   Biso      1.000     H          0.130107  
         H8        1.0000    0.15740   0.47270   0.82000   Biso      1.000     H          0.134053  
         H9        1.0000    0.72270   0.41260   0.32000   Biso      1.000     H          0.134615  
         H10       1.0000    0.40270   0.60690   0.87860   Biso      1.000     H          0.130152  
         H11       1.0000    0.93010   0.29580   0.93760   Biso      1.000     H          0.146893  
         H12       1.0000    0.95070   0.33370   0.45280   Biso      1.000     H          0.115999  
         H13       1.0000    0.36910   0.70070   0.95280   Biso      1.000     H          0.117454  
         H14       1.0000    0.54580   0.75750   0.43760   Biso      1.000     H          0.147516  
         H15       1.0000    0.52170   0.15270   0.37860   Biso      1.000     H          0.129496  
         H16       1.0000    0.35820   0.99250   0.06240   Biso      1.000     H          0.148059  
         H17       1.0000    0.39310   0.59730   0.12140   Biso      1.000     H          0.130156  
         H18       1.0000    0.74790   0.41630   0.04720   Biso      1.000     H          0.117661  
         H19       1.0000    0.65270   0.33740   0.18000   Biso      1.000     H          0.132982  
         H20       1.0000    0.70420   0.06990   0.06240   Biso      1.000     H          0.146893  
         H21       1.0000    0.72830   0.52410   0.12140   Biso      1.000     H          0.13011   
         H22       1.0000    0.88090   0.49790   0.54720   Biso      1.000     H          0.117279  
         H23       1.0000    0.09260   0.40270   0.68000   Biso      1.000     H          0.134641  
         H24       1.0000    0.52730   0.84260   0.18000   Biso      1.000     H          0.134051  
         H25       1.0000    0.84730   0.47830   0.62140   Biso      1.000     H          0.129494  
         H26       1.0000    0.66630   0.04930   0.54720   Biso      1.000     H          0.115974  
         H27       1.0000    0.58740   0.27730   0.68000   Biso      1.000     H          0.134612  
         H28       1.0000    0.31990   0.10820   0.56240   Biso      1.000     H          0.146827  
         H29       1.0000    0.77410   0.14310   0.62140   Biso      1.000     H          0.130101  
         H30       1.0000    0.50210   0.11910   0.45280   Biso      1.000     H          0.117246  
         H31       1.0000    0.59730   0.90740   0.32000   Biso      1.000     H          0.134657  
         H32       1.0000    0.24250   0.45420   0.56240   Biso      1.000     H          0.147566  
         O1        1.0000    0.74219   0.35910   0.72936   Biso      1.000     O          -0.528064           
         O2        1.0000    0.87613   0.45778   0.71740   Biso      1.000     O          -0.537928           
         O3        1.0000    0.98717   0.37026   0.72936   Biso      1.000     O          -0.528749           
         O4        1.0000    0.84127   0.25962   0.71740   Biso      1.000     O          -0.53719  
         O5        1.0000    0.35500   0.21530   0.66542   Biso      1.000     O          -0.522779           
         O6        1.0000    0.43579   0.32277   0.65556   Biso      1.000     O          -0.527787           
         O7        1.0000    0.21977   0.33279   0.65556   Biso      1.000     O          -0.527969           
         O8        1.0000    0.34107   0.97917   0.47754   Biso      1.000     O          -0.090804           
         O9        1.0000    0.31042   0.45012   0.66542   Biso      1.000     O          -0.524091           
         O10       1.0000    0.58279   0.18579   0.15556   Biso      1.000     O          -0.527823           
         O11       1.0000    0.62026   0.49219   0.22936   Biso      1.000     O          -0.528786           
         O12       1.0000    0.70778   0.59127   0.21740   Biso      1.000     O          -0.537911           
         O13       1.0000    0.70012   0.10500   0.16542   Biso      1.000     O          -0.523257           
         O14       1.0000    0.74837   0.09107   0.97754   Biso      1.000     O          -0.0907   
         O15       1.0000    0.60910   0.73717   0.22936   Biso      1.000     O          -0.52783  
         O16       1.0000    0.50962   0.62613   0.21740   Biso      1.000     O          -0.536881           
         O17       1.0000    0.57277   0.96977   0.15556   Biso      1.000     O          -0.527232           
         O18       1.0000    0.13647   0.49837   0.47754   Biso      1.000     O          -0.090477           
         O19       1.0000    0.50163   0.86353   0.52246   Biso      1.000     O          -0.090311           
         O20       1.0000    0.26283   0.39090   0.77064   Biso      1.000     O          -0.527864           
         O21       1.0000    0.66721   0.78023   0.34444   Biso      1.000     O          -0.528122           
         O22       1.0000    0.46530   0.06042   0.16542   Biso      1.000     O          -0.523243           
         O23       1.0000    0.37387   0.49038   0.78260   Biso      1.000     O          -0.536882           
         O24       1.0000    0.03023   0.42723   0.84444   Biso      1.000     O          -0.527268           
         O25       1.0000    0.93958   0.53470   0.83458   Biso      1.000     O          -0.523206           
         O26       1.0000    0.11353   0.77083   0.02246   Biso      1.000     O          -0.090486           
         O27       1.0000    0.50781   0.37974   0.77064   Biso      1.000     O          -0.528756           
         O28       1.0000    0.40873   0.29222   0.78260   Biso      1.000     O          -0.537929           
         O29       1.0000    0.81421   0.41721   0.84444   Biso      1.000     O          -0.527816           
         O30       1.0000    0.89500   0.29988   0.83458   Biso      1.000     O          -0.523241           
         O31       1.0000    0.90893   0.25163   0.02246   Biso      1.000     O          -0.090695           
         O32       1.0000    0.64090   0.25781   0.27064   Biso      1.000     O          -0.52806  
         O33       1.0000    0.74038   0.15873   0.28260   Biso      1.000     O          -0.537278           
         O34       1.0000    0.67723   0.56421   0.34444   Biso      1.000     O          -0.527779           
         O35       1.0000    0.78470   0.64500   0.33458   Biso      1.000     O          -0.522775           
         O36       1.0000    0.02083   0.65893   0.52246   Biso      1.000     O          -0.091148           
         O37       1.0000    0.62974   0.01283   0.27064   Biso      1.000     O          -0.528721           
         O38       1.0000    0.54222   0.12387   0.28260   Biso      1.000     O          -0.537909           
         O39       1.0000    0.54988   0.68958   0.33458   Biso      1.000     O          -0.524123           
         O40       1.0000    0.22917   0.88647   0.97754   Biso      1.000     O          -0.090485 