
##########################################################################
#               Crystallographic Information Format file
#               Produced by PyCifRW module
#
#  This is a CIF file.  CIF has been adopted by the International
#  Union of Crystallography as the standard for data archiving and
#  transmission.
#
#  For information on this file format, follow the CIF links at
#  http://www.iucr.org
##########################################################################

data_image0

_cell_length_a                          21.9168
_cell_length_b                          21.9168
_cell_length_c                          21.9168
_cell_angle_alpha                       60
_cell_angle_beta                        60
_cell_angle_gamma                       60
_symmetry_space_group_name_H-M          'P 1'
_symmetry_int_tables_number             1
loop_
  _symmetry_equiv_pos_as_xyz
         'x, y, z' 
loop_
  _atom_site_label
  _atom_site_occupancy
  _atom_site_fract_x
  _atom_site_fract_y
  _atom_site_fract_z
  _atom_site_thermal_displace_type
  _atom_site_B_iso_or_equiv
  _atom_site_type_symbol
  _atom_site_charge
         C1        1.0000    0.64375   0.92150   0.51325   Biso      1.000     C          -0.26548299999999997          
         C2        1.0000    0.92150   0.64375   0.92150   Biso      1.000     C          -0.265482           
         C3        1.0000    0.96120   0.50504   0.96120   Biso      1.000     C          0.15468099999999999           
         C4        1.0000    0.92150   0.51325   0.92150   Biso      1.000     C          -0.26548299999999997          
         C5        1.0000    0.88267   0.58429   0.88267   Biso      1.000     C          0.141163  
         C6        1.0000    0.50504   0.96120   0.57256   Biso      1.000     C          0.154683  
         C7        1.0000    0.51325   0.92150   0.64375   Biso      1.000     C          -0.265487           
         C8        1.0000    0.58429   0.88267   0.65037   Biso      1.000     C          0.141151  
         C9        1.0000    0.03880   0.03880   0.42744   Biso      1.000     C          0.15467999999999998           
         C10       1.0000    0.07850   0.07850   0.35625   Biso      1.000     C          -0.265482           
         C11       1.0000    0.11733   0.11733   0.34963   Biso      1.000     C          0.141164  
         C12       1.0000    0.96120   0.57256   0.96120   Biso      1.000     C          0.15467999999999998           
         C13       1.0000    0.42744   0.49496   0.03880   Biso      1.000     C          0.154683  
         C14       1.0000    0.34963   0.41571   0.11733   Biso      1.000     C          0.14116099999999998           
         C15       1.0000    0.49496   0.42744   0.03880   Biso      1.000     C          0.154683  
         C16       1.0000    0.48675   0.35625   0.07850   Biso      1.000     C          -0.265486           
         C17       1.0000    0.41571   0.34963   0.11733   Biso      1.000     C          0.141151  
         C18       1.0000    0.03880   0.03880   0.49496   Biso      1.000     C          0.15468099999999999           
         C19       1.0000    0.07850   0.07850   0.48675   Biso      1.000     C          -0.265484           
         C20       1.0000    0.11733   0.11733   0.41571   Biso      1.000     C          0.141163  
         C21       1.0000    0.03880   0.49496   0.03880   Biso      1.000     C          0.15468099999999999           
         C22       1.0000    0.07850   0.48675   0.07850   Biso      1.000     C          -0.26548299999999997          
         C23       1.0000    0.11733   0.41571   0.11733   Biso      1.000     C          0.141164  
         C24       1.0000    0.35625   0.48675   0.07850   Biso      1.000     C          -0.26548299999999997          
         C25       1.0000    0.65037   0.88267   0.58429   Biso      1.000     C          0.14116199999999998           
         C26       1.0000    0.57256   0.96120   0.50504   Biso      1.000     C          0.154682  
         C27       1.0000    0.65037   0.88267   0.88267   Biso      1.000     C          0.14116199999999998           
         C28       1.0000    0.96120   0.96120   0.57256   Biso      1.000     C          0.15467999999999998           
         C29       1.0000    0.92150   0.92150   0.64375   Biso      1.000     C          -0.265482           
         C30       1.0000    0.88267   0.88267   0.65037   Biso      1.000     C          0.141164  
         C31       1.0000    0.50504   0.57256   0.96120   Biso      1.000     C          0.154683  
         C32       1.0000    0.51325   0.64375   0.92150   Biso      1.000     C          -0.265486           
         C33       1.0000    0.58429   0.65037   0.88267   Biso      1.000     C          0.141151  
         C34       1.0000    0.57256   0.50504   0.96120   Biso      1.000     C          0.154682  
         C35       1.0000    0.64375   0.51325   0.92150   Biso      1.000     C          -0.26548299999999997          
         C36       1.0000    0.65037   0.58429   0.88267   Biso      1.000     C          0.14116099999999998           
         C37       1.0000    0.96120   0.96120   0.50504   Biso      1.000     C          0.15467999999999998           
         C38       1.0000    0.92150   0.92150   0.51325   Biso      1.000     C          -0.26548299999999997          
         C39       1.0000    0.88267   0.88267   0.58429   Biso      1.000     C          0.141164  
         C40       1.0000    0.50504   0.96120   0.96120   Biso      1.000     C          0.154683  
         C41       1.0000    0.51325   0.92150   0.92150   Biso      1.000     C          -0.265486           
         C42       1.0000    0.58429   0.88267   0.88267   Biso      1.000     C          0.141151  
         C43       1.0000    0.96120   0.57256   0.50504   Biso      1.000     C          0.15468099999999999           
         C44       1.0000    0.92150   0.64375   0.51325   Biso      1.000     C          -0.26548299999999997          
         C45       1.0000    0.88267   0.65037   0.58429   Biso      1.000     C          0.141163  
         C46       1.0000    0.96120   0.50504   0.57256   Biso      1.000     C          0.15468099999999999           
         C47       1.0000    0.92150   0.51325   0.64375   Biso      1.000     C          -0.265482           
         C48       1.0000    0.88267   0.58429   0.65037   Biso      1.000     C          0.141163  
         C49       1.0000    0.57256   0.96120   0.96120   Biso      1.000     C          0.154682  
         C50       1.0000    0.64375   0.92150   0.92150   Biso      1.000     C          -0.265482           
         C51       1.0000    0.42744   0.03880   0.49496   Biso      1.000     C          0.154682  
         C52       1.0000    0.35625   0.07850   0.48675   Biso      1.000     C          -0.26548299999999997          
         C53       1.0000    0.88267   0.65037   0.88267   Biso      1.000     C          0.141164  
         C54       1.0000    0.49496   0.03880   0.42744   Biso      1.000     C          0.154682  
         C55       1.0000    0.34963   0.11733   0.41571   Biso      1.000     C          0.14116199999999998           
         C56       1.0000    0.11733   0.41571   0.34963   Biso      1.000     C          0.141163  
         C57       1.0000    0.03880   0.49496   0.42744   Biso      1.000     C          0.15468099999999999           
         C58       1.0000    0.41571   0.11733   0.11733   Biso      1.000     C          0.141151  
         C59       1.0000    0.48675   0.07850   0.07850   Biso      1.000     C          -0.265486           
         C60       1.0000    0.49496   0.03880   0.03880   Biso      1.000     C          0.154683  
         C61       1.0000    0.34963   0.11733   0.11733   Biso      1.000     C          0.14116199999999998           
         C62       1.0000    0.35625   0.07850   0.07850   Biso      1.000     C          -0.265482           
         C63       1.0000    0.07850   0.48675   0.35625   Biso      1.000     C          -0.265482           
         C64       1.0000    0.11733   0.34963   0.41571   Biso      1.000     C          0.141163  
         C65       1.0000    0.07850   0.35625   0.48675   Biso      1.000     C          -0.265482           
         C66       1.0000    0.03880   0.42744   0.49496   Biso      1.000     C          0.15467999999999998           
         C67       1.0000    0.11733   0.34963   0.11733   Biso      1.000     C          0.141164  
         C68       1.0000    0.07850   0.35625   0.07850   Biso      1.000     C          -0.26548099999999997          
         C69       1.0000    0.03880   0.42744   0.03880   Biso      1.000     C          0.15467999999999998           
         C70       1.0000    0.48675   0.07850   0.35625   Biso      1.000     C          -0.265486           
         C71       1.0000    0.41571   0.11733   0.34963   Biso      1.000     C          0.141151  
         C72       1.0000    0.42744   0.03880   0.03880   Biso      1.000     C          0.15468099999999999           
         Cl1       1.0000    0.14412   0.56764   0.14412   Biso      1.000     Cl          -0.409    
         Cl2       1.0000    0.56764   0.14412   0.14412   Biso      1.000     Cl          -0.409069           
         Cl3       1.0000    0.14412   0.14412   0.14412   Biso      1.000     Cl          -0.408999           
         Cl4       1.0000    0.43236   0.85588   0.85588   Biso      1.000     Cl          -0.409069           
         Cl5       1.0000    0.85588   0.43236   0.85588   Biso      1.000     Cl          -0.409    
         Cl6       1.0000    0.85588   0.85588   0.85588   Biso      1.000     Cl          -0.408999           
         Cl7       1.0000    0.85588   0.85588   0.43236   Biso      1.000     Cl          -0.408989           
         Cl8       1.0000    0.14412   0.14412   0.56764   Biso      1.000     Cl          -0.40899  
         Co1       1.0000    0.18152   0.45546   0.18151   Biso      1.000     Co          0.637717  
         Co2       1.0000    0.81848   0.81849   0.81849   Biso      1.000     Co          0.637716  
         Co3       1.0000    0.18152   0.18151   0.18151   Biso      1.000     Co          0.637716  
         Co4       1.0000    0.18152   0.18151   0.45546   Biso      1.000     Co          0.6377079999999999  
         Co5       1.0000    0.54453   0.81849   0.81849   Biso      1.000     Co          0.6378199999999999  
         Co6       1.0000    0.81848   0.54454   0.81849   Biso      1.000     Co          0.637716  
         Co7       1.0000    0.81848   0.81849   0.54454   Biso      1.000     Co          0.637707  
         Co8       1.0000    0.45547   0.18151   0.18151   Biso      1.000     Co          0.6378189999999999  
         H1        1.0000    0.07873   0.07873   0.52901   Biso      1.000     H          0.153798  
         H2        1.0000    0.52901   0.31353   0.07873   Biso      1.000     H          0.15379600000000002           
         H3        1.0000    0.92127   0.47099   0.68647   Biso      1.000     H          0.153798  
         H4        1.0000    0.92127   0.68647   0.47099   Biso      1.000     H          0.153798  
         H5        1.0000    0.47099   0.92127   0.92127   Biso      1.000     H          0.15379600000000002           
         H6        1.0000    0.68647   0.47099   0.92127   Biso      1.000     H          0.15379600000000002           
         H7        1.0000    0.47099   0.68647   0.92127   Biso      1.000     H          0.15379600000000002           
         H8        1.0000    0.68647   0.92127   0.92127   Biso      1.000     H          0.15379600000000002           
         H9        1.0000    0.92127   0.92127   0.68647   Biso      1.000     H          0.153798  
         H10       1.0000    0.68647   0.92127   0.47099   Biso      1.000     H          0.15379600000000002           
         H11       1.0000    0.92127   0.68647   0.92127   Biso      1.000     H          0.153798  
         H12       1.0000    0.92127   0.47099   0.92127   Biso      1.000     H          0.153798  
         H13       1.0000    0.92127   0.92127   0.47099   Biso      1.000     H          0.153798  
         H14       1.0000    0.07873   0.07873   0.31353   Biso      1.000     H          0.153798  
         H15       1.0000    0.07873   0.52901   0.07873   Biso      1.000     H          0.153799  
         H16       1.0000    0.47099   0.92127   0.68647   Biso      1.000     H          0.15379600000000002           
         H17       1.0000    0.31353   0.07873   0.52901   Biso      1.000     H          0.15379600000000002           
         H18       1.0000    0.07873   0.31353   0.07873   Biso      1.000     H          0.153798  
         H19       1.0000    0.52901   0.07873   0.31353   Biso      1.000     H          0.15379600000000002           
         H20       1.0000    0.31353   0.07873   0.07873   Biso      1.000     H          0.15379600000000002           
         H21       1.0000    0.52901   0.07873   0.07873   Biso      1.000     H          0.15379600000000002           
         H22       1.0000    0.07873   0.52901   0.31353   Biso      1.000     H          0.153798  
         H23       1.0000    0.31353   0.52901   0.07873   Biso      1.000     H          0.15379600000000002           
         H24       1.0000    0.07873   0.31353   0.52901   Biso      1.000     H          0.153798  
         N1        1.0000    0.83990   0.83990   0.71049   Biso      1.000     N          -0.23191799999999999          
         N2        1.0000    0.31460   0.18540   0.31460   Biso      1.000     N          0.019481000000000002          
         N3        1.0000    0.18540   0.31460   0.31460   Biso      1.000     N          0.019482  
         N4        1.0000    0.31460   0.18540   0.18540   Biso      1.000     N          0.019481000000000002          
         N5        1.0000    0.18540   0.31460   0.18540   Biso      1.000     N          0.019482  
         N6        1.0000    0.18540   0.18540   0.31460   Biso      1.000     N          0.019482  
         N7        1.0000    0.81460   0.68540   0.68540   Biso      1.000     N          0.019482  
         N8        1.0000    0.68540   0.81460   0.68540   Biso      1.000     N          0.019481000000000002          
         N9        1.0000    0.81460   0.68540   0.81460   Biso      1.000     N          0.019482  
         N10       1.0000    0.68540   0.81460   0.81460   Biso      1.000     N          0.019482  
         N11       1.0000    0.81460   0.81460   0.68540   Biso      1.000     N          0.019488  
         N12       1.0000    0.68540   0.68540   0.81460   Biso      1.000     N          0.019483  
         N13       1.0000    0.60971   0.71049   0.83990   Biso      1.000     N          -0.231896           
         N14       1.0000    0.31460   0.31460   0.18540   Biso      1.000     N          0.019482  
         N15       1.0000    0.71049   0.60971   0.83990   Biso      1.000     N          -0.231913           
         N16       1.0000    0.83990   0.71049   0.83990   Biso      1.000     N          -0.231911           
         N17       1.0000    0.60971   0.83990   0.83990   Biso      1.000     N          -0.231896           
         N18       1.0000    0.16010   0.39029   0.28951   Biso      1.000     N          -0.23191399999999998          
         N19       1.0000    0.39029   0.16010   0.16010   Biso      1.000     N          -0.231896           
         N20       1.0000    0.28951   0.16010   0.16010   Biso      1.000     N          -0.231911           
         N21       1.0000    0.16010   0.28951   0.39029   Biso      1.000     N          -0.23190999999999998          
         N22       1.0000    0.16010   0.28951   0.16010   Biso      1.000     N          -0.231911           
         N23       1.0000    0.39029   0.16010   0.28951   Biso      1.000     N          -0.23189899999999997          
         N24       1.0000    0.83990   0.83990   0.60971   Biso      1.000     N          -0.231913           
         N25       1.0000    0.16010   0.39029   0.16010   Biso      1.000     N          -0.231911           
         N26       1.0000    0.16010   0.16010   0.39029   Biso      1.000     N          -0.23191199999999998          
         N27       1.0000    0.28951   0.16010   0.39029   Biso      1.000     N          -0.231913           
         N28       1.0000    0.28951   0.39029   0.16010   Biso      1.000     N          -0.23191199999999998          
         N29       1.0000    0.16010   0.16010   0.28951   Biso      1.000     N          -0.231913           
         N30       1.0000    0.60971   0.83990   0.71049   Biso      1.000     N          -0.23189899999999997          
         N31       1.0000    0.83990   0.60971   0.83990   Biso      1.000     N          -0.231911           
         N32       1.0000    0.71049   0.83990   0.60971   Biso      1.000     N          -0.23191199999999998          
         N33       1.0000    0.71049   0.83990   0.83990   Biso      1.000     N          -0.231911           
         N34       1.0000    0.83990   0.60971   0.71049   Biso      1.000     N          -0.23191199999999998          
         N35       1.0000    0.83990   0.71049   0.60971   Biso      1.000     N          -0.231911           
         N36       1.0000    0.39029   0.28951   0.16010   Biso      1.000     N          -0.231896           
         O1        1.0000    0.56681   0.00000   0.43319   Biso      1.000     O          -0.15145999999999998          
         O2        1.0000    0.56681   0.43319   0.00000   Biso      1.000     O          -0.15145899999999998          
         O3        1.0000    0.00000   0.00000   0.56681   Biso      1.000     O          -0.15145999999999998          
         O4        1.0000    0.00000   0.56681   0.00000   Biso      1.000     O          -0.15145899999999998          
         O5        1.0000    0.43319   0.00000   0.56681   Biso      1.000     O          -0.15145999999999998          
         O6        1.0000    0.00000   0.43319   0.00000   Biso      1.000     O          -0.15145899999999998          
         O7        1.0000    0.00000   0.00000   0.43319   Biso      1.000     O          -0.15145999999999998          
         O8        1.0000    0.43319   0.00000   0.00000   Biso      1.000     O          -0.15145899999999998          
         O9        1.0000    0.56681   0.00000   0.00000   Biso      1.000     O          -0.15145899999999998          
         O10       1.0000    0.00000   0.56681   0.43319   Biso      1.000     O          -0.15145999999999998          
         O11       1.0000    0.43319   0.56681   0.00000   Biso      1.000     O          -0.15145899999999998          
         O12       1.0000    0.00000   0.43319   0.56681   Biso      1.000     O          -0.15145999999999998          
         Zn1       1.0000    0.75000   0.75000   0.75000   Biso      1.000     Zn          0.45000200000000007           
         Zn2       1.0000    0.25000   0.25000   0.25000   Biso      1.000     Zn          0.450003 