
##########################################################################
#               Crystallographic Information Format file
#               Produced by PyCifRW module
#
#  This is a CIF file.  CIF has been adopted by the International
#  Union of Crystallography as the standard for data archiving and
#  transmission.
#
#  For information on this file format, follow the CIF links at
#  http://www.iucr.org
##########################################################################

data_image0

_cell_length_a                          15.3661
_cell_length_b                          15.3661
_cell_length_c                          15.3661
_cell_angle_alpha                       60
_cell_angle_beta                        60
_cell_angle_gamma                       60
_symmetry_space_group_name_H-M          'P 1'
_symmetry_int_tables_number             1
loop_
  _symmetry_equiv_pos_as_xyz
         'x, y, z' 
loop_
  _atom_site_label
  _atom_site_occupancy
  _atom_site_fract_x
  _atom_site_fract_y
  _atom_site_fract_z
  _atom_site_thermal_displace_type
  _atom_site_B_iso_or_equiv
  _atom_site_type_symbol
  _atom_site_charge
         C1        1.0000    0.90020   0.50000   0.50000   Biso      1.000     C          -0.223701           
         C2        1.0000    0.55260   0.55260   0.89920   Biso      1.000     C          0.129063  
         C3        1.0000    0.99560   0.55260   0.55260   Biso      1.000     C          0.12906199999999998           
         C4        1.0000    0.89920   0.55260   0.55260   Biso      1.000     C          0.129063  
         C5        1.0000    0.55260   0.99560   0.89920   Biso      1.000     C          0.12906099999999998           
         C6        1.0000    0.55260   0.89920   0.99560   Biso      1.000     C          0.12906199999999998           
         C7        1.0000    0.99560   0.55260   0.89920   Biso      1.000     C          0.12906099999999998           
         C8        1.0000    0.89920   0.55260   0.99560   Biso      1.000     C          0.12906099999999998           
         C9        1.0000    0.55260   0.89920   0.55260   Biso      1.000     C          0.129064  
         C10       1.0000    0.55260   0.55260   0.99560   Biso      1.000     C          0.12906099999999998           
         C11       1.0000    0.55260   0.99560   0.55260   Biso      1.000     C          0.129063  
         C12       1.0000    0.00440   0.10080   0.44740   Biso      1.000     C          0.129063  
         C13       1.0000    0.44740   0.44740   0.00440   Biso      1.000     C          0.12906099999999998           
         C14       1.0000    0.44740   0.44740   0.10080   Biso      1.000     C          0.129063  
         C15       1.0000    0.44740   0.00440   0.44740   Biso      1.000     C          0.129063  
         C16       1.0000    0.44740   0.10080   0.44740   Biso      1.000     C          0.129065  
         C17       1.0000    0.00440   0.44740   0.10080   Biso      1.000     C          0.12906099999999998           
         C18       1.0000    0.10080   0.44740   0.00440   Biso      1.000     C          0.12906099999999998           
         C19       1.0000    0.44740   0.00440   0.10080   Biso      1.000     C          0.12906099999999998           
         C20       1.0000    0.10080   0.00440   0.44740   Biso      1.000     C          0.129063  
         C21       1.0000    0.44740   0.10080   0.00440   Biso      1.000     C          0.12906199999999998           
         C22       1.0000    0.89920   0.99560   0.55260   Biso      1.000     C          0.12906199999999998           
         C23       1.0000    0.00440   0.44740   0.44740   Biso      1.000     C          0.12906800000000002           
         C24       1.0000    0.50000   0.09980   0.50000   Biso      1.000     C          -0.223701           
         C25       1.0000    0.50000   0.90020   0.50000   Biso      1.000     C          -0.223702           
         C26       1.0000    0.99560   0.89920   0.55260   Biso      1.000     C          0.129063  
         C27       1.0000    0.09980   0.50000   0.90020   Biso      1.000     C          -0.22369499999999998          
         C28       1.0000    0.50000   0.90020   0.09980   Biso      1.000     C          -0.223698           
         C29       1.0000    0.50000   0.09980   0.90020   Biso      1.000     C          -0.223698           
         C30       1.0000    0.90020   0.50000   0.09980   Biso      1.000     C          -0.22369499999999998          
         C31       1.0000    0.09980   0.50000   0.50000   Biso      1.000     C          -0.223702           
         C32       1.0000    0.50000   0.50000   0.90020   Biso      1.000     C          -0.22369299999999998          
         C33       1.0000    0.50000   0.50000   0.09980   Biso      1.000     C          -0.22369299999999998          
         C34       1.0000    0.90020   0.09980   0.50000   Biso      1.000     C          -0.223698           
         C35       1.0000    0.09980   0.90020   0.50000   Biso      1.000     C          -0.22369899999999998          
         C36       1.0000    0.10080   0.44740   0.44740   Biso      1.000     C          0.12906900000000002           
         Cl1       1.0000    0.18380   0.60540   0.60540   Biso      1.000     Cl          -0.35229699999999997          
         Cl2       1.0000    0.60540   0.18380   0.60540   Biso      1.000     Cl          -0.35229499999999997          
         Cl3       1.0000    0.60540   0.60540   0.18380   Biso      1.000     Cl          -0.352298           
         Cl4       1.0000    0.60540   0.60540   0.60540   Biso      1.000     Cl          -0.35229699999999997          
         Cl5       1.0000    0.39460   0.81620   0.39460   Biso      1.000     Cl          -0.352294           
         Cl6       1.0000    0.81620   0.39460   0.39460   Biso      1.000     Cl          -0.352298           
         Cl7       1.0000    0.39460   0.39460   0.81620   Biso      1.000     Cl          -0.352299           
         Cl8       1.0000    0.39460   0.39460   0.39460   Biso      1.000     Cl          -0.352296           
         Co1       1.0000    0.02330   0.65890   0.65890   Biso      1.000     Co          0.719923  
         Co2       1.0000    0.65890   0.02330   0.65890   Biso      1.000     Co          0.719923  
         Co3       1.0000    0.65890   0.65890   0.02330   Biso      1.000     Co          0.719921  
         Co4       1.0000    0.65890   0.65890   0.65890   Biso      1.000     Co          0.7199260000000001  
         Co5       1.0000    0.34110   0.97670   0.34110   Biso      1.000     Co          0.7199270000000001  
         Co6       1.0000    0.97670   0.34110   0.34110   Biso      1.000     Co          0.719931  
         Co7       1.0000    0.34110   0.34110   0.97670   Biso      1.000     Co          0.719921  
         Co8       1.0000    0.34110   0.34110   0.34110   Biso      1.000     Co          0.719934  
         H1        1.0000    0.50000   0.16040   0.50000   Biso      1.000     H          0.153692  
         H2        1.0000    0.16040   0.83960   0.50000   Biso      1.000     H          0.153692  
         H3        1.0000    0.50000   0.83960   0.50000   Biso      1.000     H          0.153692  
         H4        1.0000    0.50000   0.50000   0.16040   Biso      1.000     H          0.15369100000000002           
         H5        1.0000    0.50000   0.50000   0.83960   Biso      1.000     H          0.15369100000000002           
         H6        1.0000    0.16040   0.50000   0.50000   Biso      1.000     H          0.153693  
         H7        1.0000    0.83960   0.50000   0.50000   Biso      1.000     H          0.153693  
         H8        1.0000    0.83960   0.16040   0.50000   Biso      1.000     H          0.153692  
         H9        1.0000    0.50000   0.83960   0.16040   Biso      1.000     H          0.153693  
         H10       1.0000    0.16040   0.50000   0.83960   Biso      1.000     H          0.153692  
         H11       1.0000    0.83960   0.50000   0.16040   Biso      1.000     H          0.153692  
         H12       1.0000    0.50000   0.16040   0.83960   Biso      1.000     H          0.153693  
         N1        1.0000    0.03970   0.38770   0.38770   Biso      1.000     N          -0.206254           
         N2        1.0000    0.85536   0.85536   0.64464   Biso      1.000     N          -0.020817           
         N3        1.0000    0.64464   0.64464   0.85536   Biso      1.000     N          -0.020816           
         N4        1.0000    0.85536   0.64464   0.64464   Biso      1.000     N          -0.020817           
         N5        1.0000    0.64464   0.85536   0.85536   Biso      1.000     N          -0.020818           
         N6        1.0000    0.64464   0.85536   0.64464   Biso      1.000     N          -0.020817           
         N7        1.0000    0.14464   0.14464   0.35536   Biso      1.000     N          -0.020819           
         N8        1.0000    0.18490   0.38770   0.38770   Biso      1.000     N          -0.206254           
         N9        1.0000    0.35536   0.14464   0.35536   Biso      1.000     N          -0.020818           
         N10       1.0000    0.14464   0.35536   0.14464   Biso      1.000     N          -0.020819999999999998         
         N11       1.0000    0.35536   0.14464   0.14464   Biso      1.000     N          -0.020817           
         N12       1.0000    0.14464   0.35536   0.35536   Biso      1.000     N          -0.020712           
         N13       1.0000    0.85536   0.64464   0.85536   Biso      1.000     N          -0.020817           
         N14       1.0000    0.35536   0.35536   0.14464   Biso      1.000     N          -0.020818           
         N15       1.0000    0.38770   0.18490   0.03970   Biso      1.000     N          -0.20619099999999999          
         N16       1.0000    0.18490   0.38770   0.03970   Biso      1.000     N          -0.20619099999999999          
         N17       1.0000    0.96030   0.81510   0.61230   Biso      1.000     N          -0.20619400000000002          
         N18       1.0000    0.81510   0.96030   0.61230   Biso      1.000     N          -0.20619400000000002          
         N19       1.0000    0.61230   0.61230   0.96030   Biso      1.000     N          -0.206193           
         N20       1.0000    0.61230   0.61230   0.81510   Biso      1.000     N          -0.206195           
         N21       1.0000    0.96030   0.61230   0.61230   Biso      1.000     N          -0.206193           
         N22       1.0000    0.81510   0.61230   0.61230   Biso      1.000     N          -0.206195           
         N23       1.0000    0.61230   0.96030   0.81510   Biso      1.000     N          -0.20619  
         N24       1.0000    0.61230   0.81510   0.96030   Biso      1.000     N          -0.20619099999999999          
         N25       1.0000    0.38770   0.03970   0.18490   Biso      1.000     N          -0.20619200000000001          
         N26       1.0000    0.96030   0.61230   0.81510   Biso      1.000     N          -0.20619200000000001          
         N27       1.0000    0.61230   0.81510   0.61230   Biso      1.000     N          -0.206196           
         N28       1.0000    0.61230   0.96030   0.61230   Biso      1.000     N          -0.20619400000000002          
         N29       1.0000    0.18490   0.03970   0.38770   Biso      1.000     N          -0.206195           
         N30       1.0000    0.03970   0.18490   0.38770   Biso      1.000     N          -0.206195           
         N31       1.0000    0.38770   0.38770   0.03970   Biso      1.000     N          -0.20619200000000001          
         N32       1.0000    0.38770   0.03970   0.38770   Biso      1.000     N          -0.206195           
         N33       1.0000    0.38770   0.18490   0.38770   Biso      1.000     N          -0.206197           
         N34       1.0000    0.03970   0.38770   0.18490   Biso      1.000     N          -0.206193           
         N35       1.0000    0.81510   0.61230   0.96030   Biso      1.000     N          -0.20619099999999999          
         N36       1.0000    0.38770   0.38770   0.18490   Biso      1.000     N          -0.206195 