
##########################################################################
#               Crystallographic Information Format file
#               Produced by PyCifRW module
#
#  This is a CIF file.  CIF has been adopted by the International
#  Union of Crystallography as the standard for data archiving and
#  transmission.
#
#  For information on this file format, follow the CIF links at
#  http://www.iucr.org
##########################################################################

data_image0

_cell_length_a                          9.636
_cell_length_b                          9.885
_cell_length_c                          24.555
_cell_angle_alpha                       90
_cell_angle_beta                        111.479
_cell_angle_gamma                       90
_symmetry_space_group_name_H-M          'P 1'
_symmetry_int_tables_number             1
loop_
  _symmetry_equiv_pos_as_xyz
         'x, y, z' 
loop_
  _atom_site_label
  _atom_site_occupancy
  _atom_site_fract_x
  _atom_site_fract_y
  _atom_site_fract_z
  _atom_site_thermal_displace_type
  _atom_site_B_iso_or_equiv
  _atom_site_type_symbol
  _atom_site_charge
         C1        1.0000    0.76540   0.72010   0.14942   Biso      1.000     C          0.583554  
         C2        1.0000    0.36800   0.56590   0.47888   Biso      1.000     C          0.13571   
         C3        1.0000    0.43000   0.53310   0.53705   Biso      1.000     C          0.142894  
         C4        1.0000    0.56450   0.46620   0.56063   Biso      1.000     C          -0.073003           
         C5        1.0000    0.94690   0.00440   0.43814   Biso      1.000     C          -0.084101           
         C6        1.0000    0.08580   0.95530   0.47067   Biso      1.000     C          0.135759  
         C7        1.0000    0.63430   0.43720   0.62450   Biso      1.000     C          -0.145012           
         C8        1.0000    0.86130   0.04910   0.46898   Biso      1.000     C          0.141938  
         C9        1.0000    0.73660   0.81060   0.83564   Biso      1.000     C          0.135724  
         C10       1.0000    0.73300   0.23140   0.68541   Biso      1.000     C          0.082566  
         C11       1.0000    0.59880   0.08630   0.62809   Biso      1.000     C          0.13735999999999998           
         C12       1.0000    0.04430   0.33870   0.38414   Biso      1.000     C          -0.056843           
         C13       1.0000    0.17910   0.27010   0.39682   Biso      1.000     C          -0.036145           
         C14       1.0000    0.26290   0.23700   0.45450   Biso      1.000     C          -0.132386           
         C15       1.0000    0.21210   0.26800   0.49921   Biso      1.000     C          -0.094831           
         C16       1.0000    0.07610   0.33130   0.48602   Biso      1.000     C          -0.098614           
         C17       1.0000    0.99330   0.36740   0.42930   Biso      1.000     C          -0.11295799999999999          
         C18       1.0000    0.96270   0.39830   0.32491   Biso      1.000     C          0.566735  
         C19       1.0000    0.23460   0.22010   0.35058   Biso      1.000     C          0.58354   
         C20       1.0000    0.89200   0.00970   0.37179   Biso      1.000     C          -0.138482           
         C21       1.0000    0.86820   0.81240   0.30344   Biso      1.000     C          0.11265399999999999           
         C22       1.0000    0.99330   0.13260   0.92930   Biso      1.000     C          -0.112976           
         C23       1.0000    0.63430   0.06280   0.12450   Biso      1.000     C          -0.145008           
         C24       1.0000    0.07610   0.16870   0.98602   Biso      1.000     C          -0.098643           
         C25       1.0000    0.56450   0.03380   0.06063   Biso      1.000     C          -0.073033           
         C26       1.0000    0.21210   0.23200   0.99921   Biso      1.000     C          -0.094858           
         C27       1.0000    0.43000   0.96690   0.03705   Biso      1.000     C          0.142887  
         C28       1.0000    0.26290   0.26300   0.95450   Biso      1.000     C          -0.132405           
         C29       1.0000    0.86820   0.68760   0.80344   Biso      1.000     C          0.11264300000000001           
         C30       1.0000    0.17910   0.22990   0.89682   Biso      1.000     C          -0.036146           
         C31       1.0000    0.96270   0.10170   0.82491   Biso      1.000     C          0.5667300000000001  
         C32       1.0000    0.86130   0.45090   0.96898   Biso      1.000     C          0.141933  
         C33       1.0000    0.08580   0.54470   0.97067   Biso      1.000     C          0.13575299999999998           
         C34       1.0000    0.94690   0.49560   0.93814   Biso      1.000     C          -0.08407200000000001          
         C35       1.0000    0.36800   0.93410   0.97888   Biso      1.000     C          0.135717  
         C36       1.0000    0.73660   0.68940   0.33564   Biso      1.000     C          0.135735  
         C37       1.0000    0.89200   0.49030   0.87179   Biso      1.000     C          -0.138482           
         C38       1.0000    0.04430   0.16130   0.88414   Biso      1.000     C          -0.056838           
         C39       1.0000    0.59880   0.41370   0.12809   Biso      1.000     C          0.13736099999999998           
         C40       1.0000    0.40120   0.91370   0.37191   Biso      1.000     C          0.13736099999999998           
         C41       1.0000    0.26700   0.76860   0.31459   Biso      1.000     C          0.08257300000000001           
         C42       1.0000    0.03730   0.89830   0.17509   Biso      1.000     C          0.5667270000000001  
         C43       1.0000    0.10800   0.99030   0.62821   Biso      1.000     C          -0.138476           
         C44       1.0000    0.95570   0.83870   0.11586   Biso      1.000     C          -0.056846           
         C45       1.0000    0.13180   0.18760   0.69656   Biso      1.000     C          0.112648  
         C46       1.0000    0.82090   0.77010   0.10318   Biso      1.000     C          -0.036147000000000006         
         C47       1.0000    0.26340   0.31060   0.66436   Biso      1.000     C          0.135727  
         C48       1.0000    0.63200   0.06590   0.02112   Biso      1.000     C          0.135708  
         C49       1.0000    0.13870   0.54910   0.03102   Biso      1.000     C          0.14193   
         C50       1.0000    0.57000   0.03310   0.96295   Biso      1.000     C          0.14289200000000002           
         C51       1.0000    0.73710   0.73700   0.04550   Biso      1.000     C          -0.132389           
         C52       1.0000    0.78790   0.76800   0.00079   Biso      1.000     C          -0.094826           
         C53       1.0000    0.36570   0.93720   0.87550   Biso      1.000     C          -0.145009           
         C54       1.0000    0.92390   0.83130   0.01398   Biso      1.000     C          -0.098617           
         C55       1.0000    0.26700   0.73140   0.81459   Biso      1.000     C          0.08256799999999999           
         C56       1.0000    0.00670   0.86740   0.07070   Biso      1.000     C          -0.11295999999999999          
         C57       1.0000    0.40120   0.58630   0.87191   Biso      1.000     C          0.13735799999999998           
         C58       1.0000    0.43550   0.96620   0.93937   Biso      1.000     C          -0.073011           
         C59       1.0000    0.05310   0.99560   0.56186   Biso      1.000     C          -0.08408  
         C60       1.0000    0.91420   0.04470   0.52933   Biso      1.000     C          0.135762  
         C61       1.0000    0.13870   0.95090   0.53102   Biso      1.000     C          0.141941  
         C62       1.0000    0.36570   0.56280   0.37550   Biso      1.000     C          -0.145013           
         C63       1.0000    0.43550   0.53380   0.43937   Biso      1.000     C          -0.073031           
         C64       1.0000    0.57000   0.46690   0.46295   Biso      1.000     C          0.14288599999999999           
         C65       1.0000    0.63200   0.43410   0.52112   Biso      1.000     C          0.135719  
         C66       1.0000    0.26340   0.18940   0.16436   Biso      1.000     C          0.135732  
         C67       1.0000    0.76540   0.77990   0.64942   Biso      1.000     C          0.583543  
         C68       1.0000    0.13180   0.31240   0.19656   Biso      1.000     C          0.11265399999999999           
         C69       1.0000    0.00670   0.63260   0.57070   Biso      1.000     C          -0.112975           
         C70       1.0000    0.10800   0.50970   0.12821   Biso      1.000     C          -0.138486           
         C71       1.0000    0.92390   0.66870   0.51398   Biso      1.000     C          -0.098643           
         C72       1.0000    0.05310   0.50440   0.06186   Biso      1.000     C          -0.084102           
         C73       1.0000    0.78790   0.73200   0.50079   Biso      1.000     C          -0.094861           
         C74       1.0000    0.91420   0.45530   0.02933   Biso      1.000     C          0.13575299999999998           
         C75       1.0000    0.73710   0.76300   0.54550   Biso      1.000     C          -0.132403           
         C76       1.0000    0.82090   0.72990   0.60318   Biso      1.000     C          -0.036144           
         C77       1.0000    0.95570   0.66130   0.61586   Biso      1.000     C          -0.056835000000000004         
         C78       1.0000    0.03730   0.60170   0.67509   Biso      1.000     C          0.566729  
         C79       1.0000    0.73300   0.26860   0.18541   Biso      1.000     C          0.082567  
         C80       1.0000    0.23460   0.27990   0.85058   Biso      1.000     C          0.583545  
         Cu1       1.0000    0.20261   0.04209   0.25854   Biso      1.000     Cu          0.7537229999999999  
         Cu2       1.0000    0.79739   0.54209   0.24146   Biso      1.000     Cu          0.753685  
         Cu3       1.0000    0.20261   0.45791   0.75854   Biso      1.000     Cu          0.753625  
         Cu4       1.0000    0.79739   0.95791   0.74146   Biso      1.000     Cu          0.753616  
         F1        1.0000    0.72370   0.40260   0.94013   Biso      1.000     F          -0.092722           
         F2        1.0000    0.64500   0.06570   0.92781   Biso      1.000     F          -0.101999           
         F3        1.0000    0.76610   0.12850   0.04140   Biso      1.000     F          -0.10999400000000001          
         F4        1.0000    0.82430   0.08810   0.55698   Biso      1.000     F          -0.11085999999999999          
         F5        1.0000    0.27630   0.90260   0.55987   Biso      1.000     F          -0.09271900000000001          
         F6        1.0000    0.64500   0.43430   0.42781   Biso      1.000     F          -0.102007           
         F7        1.0000    0.76610   0.37150   0.54140   Biso      1.000     F          -0.109979           
         F8        1.0000    0.82430   0.41190   0.05698   Biso      1.000     F          -0.110876           
         F9        1.0000    0.27630   0.59740   0.05987   Biso      1.000     F          -0.09273300000000001          
         F10       1.0000    0.72370   0.09740   0.44013   Biso      1.000     F          -0.09273200000000001          
         F11       1.0000    0.17570   0.91190   0.44302   Biso      1.000     F          -0.110876           
         F12       1.0000    0.17570   0.58810   0.94302   Biso      1.000     F          -0.11086300000000002          
         F13       1.0000    0.35500   0.93430   0.07219   Biso      1.000     F          -0.102016           
         F14       1.0000    0.23390   0.87150   0.95860   Biso      1.000     F          -0.109983           
         F15       1.0000    0.35500   0.56570   0.57219   Biso      1.000     F          -0.101995           
         F16       1.0000    0.23390   0.62850   0.45860   Biso      1.000     F          -0.10998800000000002          
         H1        1.0000    0.80260   0.22520   0.21740   Biso      1.000     H          0.127779  
         H2        1.0000    0.90240   0.41130   0.42090   Biso      1.000     H          0.11111199999999999           
         H3        1.0000    0.64580   0.69360   0.03670   Biso      1.000     H          0.11919300000000001           
         H4        1.0000    0.42500   0.97870   0.85560   Biso      1.000     H          0.13350599999999999           
         H5        1.0000    0.31860   0.38380   0.65970   Biso      1.000     H          0.11233199999999999           
         H6        1.0000    0.07760   0.15320   0.71800   Biso      1.000     H          0.12735   
         H7        1.0000    0.02900   0.95700   0.64020   Biso      1.000     H          0.136872  
         H8        1.0000    0.19150   0.92810   0.64280   Biso      1.000     H          0.13986700000000002           
         H9        1.0000    0.64580   0.80640   0.53670   Biso      1.000     H          0.11917699999999999           
         H10       1.0000    0.90240   0.08870   0.92090   Biso      1.000     H          0.111103  
         H11       1.0000    0.73070   0.75390   0.46220   Biso      1.000     H          0.089553  
         H12       1.0000    0.19150   0.57190   0.14280   Biso      1.000     H          0.139869  
         H13       1.0000    0.02900   0.54300   0.14020   Biso      1.000     H          0.13686800000000002           
         H14       1.0000    0.95970   0.65030   0.48440   Biso      1.000     H          0.10659600000000001           
         H15       1.0000    0.07760   0.34680   0.21800   Biso      1.000     H          0.127351  
         H16       1.0000    0.09760   0.58870   0.57910   Biso      1.000     H          0.111104  
         H17       1.0000    0.31860   0.11620   0.15970   Biso      1.000     H          0.11233599999999999           
         H18       1.0000    0.44290   0.99670   0.38710   Biso      1.000     H          0.11061800000000001           
         H19       1.0000    0.19740   0.72520   0.28260   Biso      1.000     H          0.127789  
         H20       1.0000    0.26710   0.52250   0.36030   Biso      1.000     H          0.13611099999999998           
         H21       1.0000    0.26710   0.97750   0.86030   Biso      1.000     H          0.136113  
         H22       1.0000    0.42500   0.52130   0.35560   Biso      1.000     H          0.13351   
         H23       1.0000    0.04030   0.34970   0.51560   Biso      1.000     H          0.106617  
         H24       1.0000    0.26930   0.24610   0.53780   Biso      1.000     H          0.089576  
         H25       1.0000    0.04030   0.15030   0.01560   Biso      1.000     H          0.10659400000000001           
         H26       1.0000    0.73290   0.02250   0.13970   Biso      1.000     H          0.136104  
         H27       1.0000    0.57500   0.02130   0.14440   Biso      1.000     H          0.1335    
         H28       1.0000    0.26930   0.25390   0.03780   Biso      1.000     H          0.089553  
         H29       1.0000    0.35420   0.30640   0.96330   Biso      1.000     H          0.119182  
         H30       1.0000    0.80850   0.42810   0.85720   Biso      1.000     H          0.13986800000000002           
         H31       1.0000    0.97100   0.45700   0.85980   Biso      1.000     H          0.136872  
         H32       1.0000    0.68140   0.61620   0.34030   Biso      1.000     H          0.11233699999999999           
         H33       1.0000    0.92240   0.65320   0.78200   Biso      1.000     H          0.12734700000000002           
         H34       1.0000    0.73070   0.74610   0.96220   Biso      1.000     H          0.089574  
         H35       1.0000    0.68140   0.88380   0.84030   Biso      1.000     H          0.11233   
         H36       1.0000    0.92240   0.84680   0.28200   Biso      1.000     H          0.127344  
         H37       1.0000    0.80850   0.07190   0.35720   Biso      1.000     H          0.139872  
         H38       1.0000    0.57500   0.47870   0.64440   Biso      1.000     H          0.133508  
         H39       1.0000    0.73290   0.47750   0.63970   Biso      1.000     H          0.136115  
         H40       1.0000    0.80260   0.27480   0.71740   Biso      1.000     H          0.12778699999999998           
         H41       1.0000    0.55710   0.00330   0.61290   Biso      1.000     H          0.11060899999999999           
         H42       1.0000    0.55710   0.49670   0.11290   Biso      1.000     H          0.11061800000000001           
         H43       1.0000    0.44290   0.50330   0.88710   Biso      1.000     H          0.11061199999999999           
         H44       1.0000    0.95970   0.84970   0.98440   Biso      1.000     H          0.106616  
         H45       1.0000    0.35420   0.19360   0.46330   Biso      1.000     H          0.11919300000000001           
         H46       1.0000    0.19740   0.77480   0.78260   Biso      1.000     H          0.12778299999999998           
         H47       1.0000    0.97100   0.04300   0.35980   Biso      1.000     H          0.136864  
         H48       1.0000    0.09760   0.91130   0.07910   Biso      1.000     H          0.111106  
         N1        1.0000    0.70590   0.10020   0.68175   Biso      1.000     N          -0.316438           
         N2        1.0000    0.55910   0.19980   0.59958   Biso      1.000     N          -0.239558           
         N3        1.0000    0.75900   0.79920   0.36726   Biso      1.000     N          -0.23197800000000002          
         N4        1.0000    0.29410   0.60020   0.81825   Biso      1.000     N          -0.316442           
         N5        1.0000    0.24100   0.29920   0.13274   Biso      1.000     N          -0.231956           
         N6        1.0000    0.15460   0.37560   0.15319   Biso      1.000     N          0.163025  
         N7        1.0000    0.15460   0.12440   0.65319   Biso      1.000     N          0.163001  
         N8        1.0000    0.24100   0.20080   0.63274   Biso      1.000     N          -0.23199099999999998          
         N9        1.0000    0.29410   0.89980   0.31825   Biso      1.000     N          -0.31645500000000004          
         N10       1.0000    0.44090   0.80020   0.40042   Biso      1.000     N          -0.23949099999999998          
         N11       1.0000    0.70590   0.39980   0.18175   Biso      1.000     N          -0.316463           
         N12       1.0000    0.80250   0.80690   0.79516   Biso      1.000     N          -0.307431           
         N13       1.0000    0.64690   0.20790   0.13704   Biso      1.000     N          0.190538  
         N14       1.0000    0.55910   0.30020   0.09958   Biso      1.000     N          -0.23948699999999998          
         N15       1.0000    0.84540   0.87560   0.34681   Biso      1.000     N          0.163023  
         N16       1.0000    0.35310   0.70790   0.36296   Biso      1.000     N          0.19056099999999998           
         N17       1.0000    0.19750   0.19310   0.20484   Biso      1.000     N          -0.30744699999999997          
         N18       1.0000    0.84540   0.62440   0.84681   Biso      1.000     N          0.163002  
         N19       1.0000    0.75900   0.70080   0.86726   Biso      1.000     N          -0.231989           
         N20       1.0000    0.19750   0.30690   0.70484   Biso      1.000     N          -0.30743000000000004          
         N21       1.0000    0.35310   0.79210   0.86296   Biso      1.000     N          0.19053699999999998           
         N22       1.0000    0.44090   0.69980   0.90042   Biso      1.000     N          -0.23952800000000002          
         N23       1.0000    0.80250   0.69310   0.29516   Biso      1.000     N          -0.30744699999999997          
         N24       1.0000    0.64690   0.29210   0.63704   Biso      1.000     N          0.190554  
         O1        1.0000    0.17910   0.91280   0.19234   Biso      1.000     O          -0.546693           
         O2        1.0000    0.96540   0.94100   0.20448   Biso      1.000     O          -0.574793           
         O3        1.0000    0.36420   0.26110   0.85571   Biso      1.000     O          -0.562299           
         O4        1.0000    0.13860   0.14970   0.31054   Biso      1.000     O          -0.565739           
         O5        1.0000    0.82090   0.41280   0.30766   Biso      1.000     O          -0.546752           
         O6        1.0000    0.03460   0.44100   0.29552   Biso      1.000     O          -0.574816           
         O7        1.0000    0.86140   0.64970   0.18946   Biso      1.000     O          -0.565801           
         O8        1.0000    0.13860   0.35030   0.81054   Biso      1.000     O          -0.565785           
         O9        1.0000    0.82090   0.08720   0.80766   Biso      1.000     O          -0.546747           
         O10       1.0000    0.03460   0.05900   0.79552   Biso      1.000     O          -0.57481  
         O11       1.0000    0.63580   0.76110   0.64429   Biso      1.000     O          -0.562303           
         O12       1.0000    0.86140   0.85030   0.68946   Biso      1.000     O          -0.565786           
         O13       1.0000    0.17910   0.58720   0.69234   Biso      1.000     O          -0.5467489999999999           
         O14       1.0000    0.96540   0.55900   0.70448   Biso      1.000     O          -0.574804           
         O15       1.0000    0.36420   0.23890   0.35571   Biso      1.000     O          -0.562267           
         O16       1.0000    0.63580   0.73890   0.14429   Biso      1.000     O          -0.562288 