
##########################################################################
#               Crystallographic Information Format file
#               Produced by PyCifRW module
#
#  This is a CIF file.  CIF has been adopted by the International
#  Union of Crystallography as the standard for data archiving and
#  transmission.
#
#  For information on this file format, follow the CIF links at
#  http://www.iucr.org
##########################################################################

data_image0

_cell_length_a                          18.5137
_cell_length_b                          18.5137
_cell_length_c                          18.5137
_cell_angle_alpha                       60
_cell_angle_beta                        60
_cell_angle_gamma                       60
_symmetry_space_group_name_H-M          'P 1'
_symmetry_int_tables_number             1
loop_
  _symmetry_equiv_pos_as_xyz
         'x, y, z' 
loop_
  _atom_site_label
  _atom_site_occupancy
  _atom_site_fract_x
  _atom_site_fract_y
  _atom_site_fract_z
  _atom_site_thermal_displace_type
  _atom_site_B_iso_or_equiv
  _atom_site_type_symbol
  _atom_site_charge
         C1        1.0000    0.97710   0.16190   0.43050   Biso      1.000     C          0.608767  
         C2        1.0000    0.57160   0.69800   0.69800   Biso      1.000     C          -0.089278           
         C3        1.0000    0.69800   0.57160   0.03240   Biso      1.000     C          -0.089284           
         C4        1.0000    0.03240   0.69800   0.69800   Biso      1.000     C          -0.089296           
         C5        1.0000    0.69800   0.03240   0.57160   Biso      1.000     C          -0.089301           
         C6        1.0000    0.30200   0.96760   0.42840   Biso      1.000     C          -0.089302           
         C7        1.0000    0.42840   0.30200   0.30200   Biso      1.000     C          -0.089275           
         C8        1.0000    0.57160   0.03240   0.69800   Biso      1.000     C          -0.089298           
         C9        1.0000    0.30200   0.42840   0.96760   Biso      1.000     C          -0.089281           
         C10       1.0000    0.30200   0.30200   0.96760   Biso      1.000     C          -0.089301           
         C11       1.0000    0.42840   0.96760   0.30200   Biso      1.000     C          -0.08929  
         C12       1.0000    0.30200   0.30200   0.42840   Biso      1.000     C          -0.089276           
         C13       1.0000    0.96760   0.42840   0.30200   Biso      1.000     C          -0.089305           
         C14       1.0000    0.30200   0.42840   0.30200   Biso      1.000     C          -0.089277           
         C15       1.0000    0.42840   0.30200   0.96760   Biso      1.000     C          -0.089299           
         C16       1.0000    0.96760   0.30200   0.30200   Biso      1.000     C          -0.089298           
         C17       1.0000    0.30200   0.96760   0.30200   Biso      1.000     C          -0.089307           
         C18       1.0000    0.69800   0.69800   0.57160   Biso      1.000     C          -0.089277           
         C19       1.0000    0.69800   0.69800   0.03240   Biso      1.000     C          -0.089296           
         C20       1.0000    0.97710   0.43050   0.16190   Biso      1.000     C          0.608776  
         C21       1.0000    0.96520   0.38900   0.25680   Biso      1.000     C          -0.023036           
         C22       1.0000    0.16190   0.43050   0.43050   Biso      1.000     C          0.608755  
         C23       1.0000    0.25680   0.38900   0.38900   Biso      1.000     C          -0.023022           
         C24       1.0000    0.43050   0.16190   0.97710   Biso      1.000     C          0.608784  
         C25       1.0000    0.38900   0.25680   0.96520   Biso      1.000     C          -0.023034           
         C26       1.0000    0.03240   0.57160   0.69800   Biso      1.000     C          -0.089303           
         C27       1.0000    0.43050   0.97710   0.16190   Biso      1.000     C          0.608779  
         C28       1.0000    0.97710   0.43050   0.43050   Biso      1.000     C          0.60877   
         C29       1.0000    0.96520   0.38900   0.38900   Biso      1.000     C          -0.023054           
         C30       1.0000    0.03240   0.69800   0.57160   Biso      1.000     C          -0.089285           
         C31       1.0000    0.69800   0.57160   0.69800   Biso      1.000     C          -0.08928  
         C32       1.0000    0.57160   0.69800   0.03240   Biso      1.000     C          -0.089303           
         C33       1.0000    0.69800   0.03240   0.69800   Biso      1.000     C          -0.089301           
         C34       1.0000    0.38900   0.96520   0.25680   Biso      1.000     C          -0.023043           
         C35       1.0000    0.96760   0.30200   0.42840   Biso      1.000     C          -0.089282           
         C36       1.0000    0.38900   0.96520   0.38900   Biso      1.000     C          -0.023052           
         C37       1.0000    0.43050   0.97710   0.43050   Biso      1.000     C          0.608774  
         C38       1.0000    0.74320   0.61100   0.61100   Biso      1.000     C          -0.023023           
         C39       1.0000    0.83810   0.56950   0.56950   Biso      1.000     C          0.608753  
         C40       1.0000    0.03480   0.61100   0.61100   Biso      1.000     C          -0.023051           
         C41       1.0000    0.02290   0.56950   0.56950   Biso      1.000     C          0.60877   
         C42       1.0000    0.61100   0.74320   0.03480   Biso      1.000     C          -0.023034           
         C43       1.0000    0.56950   0.83810   0.02290   Biso      1.000     C          0.608784  
         C44       1.0000    0.56950   0.02290   0.83810   Biso      1.000     C          0.608779  
         C45       1.0000    0.74320   0.03480   0.61100   Biso      1.000     C          -0.023027           
         C46       1.0000    0.61100   0.61100   0.03480   Biso      1.000     C          -0.023049           
         C47       1.0000    0.56950   0.56950   0.02290   Biso      1.000     C          0.608773  
         C48       1.0000    0.61100   0.61100   0.74320   Biso      1.000     C          -0.023025           
         C49       1.0000    0.56950   0.56950   0.83810   Biso      1.000     C          0.608756  
         C50       1.0000    0.03480   0.74320   0.61100   Biso      1.000     C          -0.023028           
         C51       1.0000    0.02290   0.83810   0.56950   Biso      1.000     C          0.608769  
         C52       1.0000    0.83810   0.02290   0.56950   Biso      1.000     C          0.608773  
         C53       1.0000    0.61100   0.03480   0.74320   Biso      1.000     C          -0.023043           
         C54       1.0000    0.56950   0.83810   0.56950   Biso      1.000     C          0.608758  
         C55       1.0000    0.61100   0.74320   0.61100   Biso      1.000     C          -0.023022           
         C56       1.0000    0.25680   0.38900   0.96520   Biso      1.000     C          -0.023035           
         C57       1.0000    0.16190   0.43050   0.97710   Biso      1.000     C          0.608773  
         C58       1.0000    0.96520   0.25680   0.38900   Biso      1.000     C          -0.02303  
         C59       1.0000    0.38900   0.38900   0.96520   Biso      1.000     C          -0.023049           
         C60       1.0000    0.43050   0.43050   0.97710   Biso      1.000     C          0.608773  
         C61       1.0000    0.38900   0.38900   0.25680   Biso      1.000     C          -0.023023           
         C62       1.0000    0.43050   0.43050   0.16190   Biso      1.000     C          0.608757  
         C63       1.0000    0.25680   0.96520   0.38900   Biso      1.000     C          -0.023027           
         C64       1.0000    0.16190   0.97710   0.43050   Biso      1.000     C          0.608773  
         C65       1.0000    0.61100   0.03480   0.61100   Biso      1.000     C          -0.023052           
         C66       1.0000    0.56950   0.02290   0.56950   Biso      1.000     C          0.608774  
         C67       1.0000    0.03480   0.61100   0.74320   Biso      1.000     C          -0.023035           
         C68       1.0000    0.02290   0.56950   0.83810   Biso      1.000     C          0.608777  
         C69       1.0000    0.74320   0.61100   0.03480   Biso      1.000     C          -0.023035           
         C70       1.0000    0.83810   0.56950   0.02290   Biso      1.000     C          0.608772  
         C71       1.0000    0.38900   0.25680   0.38900   Biso      1.000     C          -0.023021           
         C72       1.0000    0.43050   0.16190   0.43050   Biso      1.000     C          0.608758  
         Cu1       1.0000    0.00000   0.42992   0.57008   Biso      1.000     Cu          0.867653  
         Cu2       1.0000    0.00000   0.42992   0.00000   Biso      1.000     Cu          0.867729  
         Cu3       1.0000    0.00000   0.00000   0.57008   Biso      1.000     Cu          0.86774   
         Cu4       1.0000    0.57008   0.42992   0.00000   Biso      1.000     Cu          0.867638  
         Cu5       1.0000    0.42992   0.57008   0.00000   Biso      1.000     Cu          0.867632  
         Cu6       1.0000    0.57008   0.00000   0.42992   Biso      1.000     Cu          0.867624  
         Cu7       1.0000    0.42992   0.00000   0.57008   Biso      1.000     Cu          0.867664  
         Cu8       1.0000    0.00000   0.00000   0.42992   Biso      1.000     Cu          0.867716  
         Cu9       1.0000    0.00000   0.57008   0.42992   Biso      1.000     Cu          0.867635  
         Cu10      1.0000    0.57008   0.00000   0.00000   Biso      1.000     Cu          0.867674  
         Cu11      1.0000    0.42992   0.00000   0.00000   Biso      1.000     Cu          0.867757  
         Cu12      1.0000    0.00000   0.57008   0.00000   Biso      1.000     Cu          0.867724  
         H1        1.0000    0.97030   0.48670   0.27150   Biso      1.000     H          0.123922  
         H2        1.0000    0.02970   0.72850   0.51330   Biso      1.000     H          0.123919  
         H3        1.0000    0.97030   0.27150   0.48670   Biso      1.000     H          0.123915  
         H4        1.0000    0.27150   0.97030   0.27150   Biso      1.000     H          0.123918  
         H5        1.0000    0.48670   0.27150   0.97030   Biso      1.000     H          0.123925  
         H6        1.0000    0.27150   0.48670   0.27150   Biso      1.000     H          0.123932  
         H7        1.0000    0.27150   0.27150   0.48670   Biso      1.000     H          0.123921  
         H8        1.0000    0.72850   0.51330   0.72850   Biso      1.000     H          0.123917  
         H9        1.0000    0.27150   0.27150   0.97030   Biso      1.000     H          0.123926  
         H10       1.0000    0.51330   0.72850   0.02970   Biso      1.000     H          0.123926  
         H11       1.0000    0.48670   0.97030   0.27150   Biso      1.000     H          0.123923  
         H12       1.0000    0.72850   0.02970   0.72850   Biso      1.000     H          0.123928  
         H13       1.0000    0.72850   0.72850   0.02970   Biso      1.000     H          0.123931  
         H14       1.0000    0.72850   0.72850   0.51330   Biso      1.000     H          0.123932  
         H15       1.0000    0.51330   0.02970   0.72850   Biso      1.000     H          0.123902  
         H16       1.0000    0.51330   0.72850   0.72850   Biso      1.000     H          0.123924  
         H17       1.0000    0.02970   0.51330   0.72850   Biso      1.000     H          0.123928  
         H18       1.0000    0.02970   0.72850   0.72850   Biso      1.000     H          0.123925  
         H19       1.0000    0.72850   0.02970   0.51330   Biso      1.000     H          0.123931  
         H20       1.0000    0.97030   0.27150   0.27150   Biso      1.000     H          0.123928  
         H21       1.0000    0.27150   0.97030   0.48670   Biso      1.000     H          0.123918  
         H22       1.0000    0.48670   0.27150   0.27150   Biso      1.000     H          0.123926  
         H23       1.0000    0.72850   0.51330   0.02970   Biso      1.000     H          0.123913  
         H24       1.0000    0.27150   0.48670   0.97030   Biso      1.000     H          0.123921  
         O1        1.0000    0.61290   0.02090   0.87370   Biso      1.000     O          -0.527054           
         O2        1.0000    0.02090   0.87370   0.61290   Biso      1.000     O          -0.527072           
         O3        1.0000    0.87370   0.61290   0.02090   Biso      1.000     O          -0.527056           
         O4        1.0000    0.49250   0.02090   0.61290   Biso      1.000     O          -0.527147           
         O5        1.0000    0.02090   0.49250   0.87370   Biso      1.000     O          -0.52715  
         O6        1.0000    0.87370   0.49250   0.61290   Biso      1.000     O          -0.527053           
         O7        1.0000    0.49250   0.87370   0.02090   Biso      1.000     O          -0.527125           
         O8        1.0000    0.61290   0.49250   0.02090   Biso      1.000     O          -0.527144           
         O9        1.0000    0.61290   0.87370   0.49250   Biso      1.000     O          -0.527073           
         O10       1.0000    0.49250   0.61290   0.87370   Biso      1.000     O          -0.527066           
         O11       1.0000    0.12630   0.38710   0.50750   Biso      1.000     O          -0.527052           
         O12       1.0000    0.38710   0.97910   0.50750   Biso      1.000     O          -0.527053           
         O13       1.0000    0.97910   0.38710   0.12630   Biso      1.000     O          -0.527148           
         O14       1.0000    0.12630   0.50750   0.97910   Biso      1.000     O          -0.527149           
         O15       1.0000    0.50750   0.12630   0.38710   Biso      1.000     O          -0.527068           
         O16       1.0000    0.50750   0.97910   0.12630   Biso      1.000     O          -0.527149           
         O17       1.0000    0.97910   0.50750   0.38710   Biso      1.000     O          -0.527052           
         O18       1.0000    0.38710   0.12630   0.97910   Biso      1.000     O          -0.527126           
         O19       1.0000    0.12630   0.97910   0.38710   Biso      1.000     O          -0.527161           
         O20       1.0000    0.50750   0.38710   0.97910   Biso      1.000     O          -0.527052           
         O21       1.0000    0.02090   0.61290   0.49250   Biso      1.000     O          -0.527141           
         O22       1.0000    0.87370   0.02090   0.49250   Biso      1.000     O          -0.52716  
         O23       1.0000    0.02090   0.87370   0.49250   Biso      1.000     O          -0.527165           
         O24       1.0000    0.50750   0.97910   0.38710   Biso      1.000     O          -0.527165           
         O25       1.0000    0.49250   0.61290   0.02090   Biso      1.000     O          -0.527066           
         O26       1.0000    0.38710   0.50750   0.12630   Biso      1.000     O          -0.527069           
         O27       1.0000    0.97910   0.38710   0.50750   Biso      1.000     O          -0.527145           
         O28       1.0000    0.38710   0.97910   0.12630   Biso      1.000     O          -0.52704  
         O29       1.0000    0.50750   0.12630   0.97910   Biso      1.000     O          -0.527138           
         O30       1.0000    0.12630   0.50750   0.38710   Biso      1.000     O          -0.527052           
         O31       1.0000    0.97910   0.50750   0.12630   Biso      1.000     O          -0.527146           
         O32       1.0000    0.38710   0.12630   0.50750   Biso      1.000     O          -0.527055           
         O33       1.0000    0.12630   0.38710   0.97910   Biso      1.000     O          -0.527062           
         O34       1.0000    0.97910   0.12630   0.38710   Biso      1.000     O          -0.52707  
         O35       1.0000    0.38710   0.50750   0.97910   Biso      1.000     O          -0.527158           
         O36       1.0000    0.50750   0.38710   0.12630   Biso      1.000     O          -0.527053           
         O37       1.0000    0.12630   0.97910   0.50750   Biso      1.000     O          -0.52716  
         O38       1.0000    0.61290   0.02090   0.49250   Biso      1.000     O          -0.527071           
         O39       1.0000    0.02090   0.61290   0.87370   Biso      1.000     O          -0.527141           
         O40       1.0000    0.87370   0.49250   0.02090   Biso      1.000     O          -0.527153           
         O41       1.0000    0.49250   0.87370   0.61290   Biso      1.000     O          -0.527051           
         O42       1.0000    0.49250   0.02090   0.87370   Biso      1.000     O          -0.527133           
         O43       1.0000    0.87370   0.61290   0.49250   Biso      1.000     O          -0.52705  
         O44       1.0000    0.02090   0.49250   0.61290   Biso      1.000     O          -0.527055           
         O45       1.0000    0.61290   0.87370   0.02090   Biso      1.000     O          -0.527141           
         O46       1.0000    0.87370   0.02090   0.61290   Biso      1.000     O          -0.527163           
         O47       1.0000    0.61290   0.49250   0.87370   Biso      1.000     O          -0.527052           
         O48       1.0000    0.97910   0.12630   0.50750   Biso      1.000     O          -0.527165 