
##########################################################################
#               Crystallographic Information Format file
#               Produced by PyCifRW module
#
#  This is a CIF file.  CIF has been adopted by the International
#  Union of Crystallography as the standard for data archiving and
#  transmission.
#
#  For information on this file format, follow the CIF links at
#  http://www.iucr.org
##########################################################################

data_image0

_cell_length_a                          18.5896
_cell_length_b                          18.5896
_cell_length_c                          18.5896
_cell_angle_alpha                       60
_cell_angle_beta                        60
_cell_angle_gamma                       60
_symmetry_space_group_name_H-M          'P 1'
_symmetry_int_tables_number             1
loop_
  _symmetry_equiv_pos_as_xyz
         'x, y, z' 
loop_
  _atom_site_label
  _atom_site_occupancy
  _atom_site_fract_x
  _atom_site_fract_y
  _atom_site_fract_z
  _atom_site_thermal_displace_type
  _atom_site_B_iso_or_equiv
  _atom_site_type_symbol
  _atom_site_charge
         C1        1.0000    0.97740   0.16220   0.43020   Biso      1.000     C          0.6046189999999999  
         C2        1.0000    0.57230   0.69890   0.69890   Biso      1.000     C          -0.091019           
         C3        1.0000    0.69890   0.57230   0.02990   Biso      1.000     C          -0.091016           
         C4        1.0000    0.02990   0.69890   0.69890   Biso      1.000     C          -0.091556           
         C5        1.0000    0.69890   0.02990   0.57230   Biso      1.000     C          -0.091546           
         C6        1.0000    0.30110   0.97010   0.42770   Biso      1.000     C          -0.091557           
         C7        1.0000    0.42770   0.30110   0.30110   Biso      1.000     C          -0.091011           
         C8        1.0000    0.57230   0.02990   0.69890   Biso      1.000     C          -0.091004           
         C9        1.0000    0.30110   0.42770   0.97010   Biso      1.000     C          -0.091023           
         C10       1.0000    0.30110   0.30110   0.97010   Biso      1.000     C          -0.091019           
         C11       1.0000    0.42770   0.97010   0.30110   Biso      1.000     C          -0.091009           
         C12       1.0000    0.30110   0.30110   0.42770   Biso      1.000     C          -0.091016           
         C13       1.0000    0.97010   0.42770   0.30110   Biso      1.000     C          -0.09100499999999999          
         C14       1.0000    0.30110   0.42770   0.30110   Biso      1.000     C          -0.09046900000000001          
         C15       1.0000    0.42770   0.30110   0.97010   Biso      1.000     C          -0.090465           
         C16       1.0000    0.97010   0.30110   0.30110   Biso      1.000     C          -0.091547           
         C17       1.0000    0.30110   0.97010   0.30110   Biso      1.000     C          -0.091    
         C18       1.0000    0.69890   0.69890   0.57230   Biso      1.000     C          -0.091015           
         C19       1.0000    0.69890   0.69890   0.02990   Biso      1.000     C          -0.091019           
         C20       1.0000    0.97740   0.43020   0.16220   Biso      1.000     C          0.604575  
         C21       1.0000    0.96930   0.38690   0.25690   Biso      1.000     C          -0.020541           
         C22       1.0000    0.16220   0.43020   0.43020   Biso      1.000     C          0.605635  
         C23       1.0000    0.25690   0.38690   0.38690   Biso      1.000     C          -0.023925           
         C24       1.0000    0.43020   0.16220   0.97740   Biso      1.000     C          0.605639  
         C25       1.0000    0.38690   0.25690   0.96930   Biso      1.000     C          -0.02393  
         C26       1.0000    0.02990   0.57230   0.69890   Biso      1.000     C          -0.091009           
         C27       1.0000    0.43020   0.97740   0.16220   Biso      1.000     C          0.605672  
         C28       1.0000    0.97740   0.43020   0.43020   Biso      1.000     C          0.60568   
         C29       1.0000    0.96930   0.38690   0.38690   Biso      1.000     C          -0.023783000000000002         
         C30       1.0000    0.02990   0.69890   0.57230   Biso      1.000     C          -0.090998           
         C31       1.0000    0.69890   0.57230   0.69890   Biso      1.000     C          -0.090465           
         C32       1.0000    0.57230   0.69890   0.02990   Biso      1.000     C          -0.09046799999999999          
         C33       1.0000    0.69890   0.02990   0.69890   Biso      1.000     C          -0.091012           
         C34       1.0000    0.38690   0.96930   0.25690   Biso      1.000     C          -0.023780000000000003         
         C35       1.0000    0.97010   0.30110   0.42770   Biso      1.000     C          -0.091009           
         C36       1.0000    0.38690   0.96930   0.38690   Biso      1.000     C          -0.020526           
         C37       1.0000    0.43020   0.97740   0.43020   Biso      1.000     C          0.604617  
         C38       1.0000    0.74310   0.61310   0.61310   Biso      1.000     C          -0.023933000000000003         
         C39       1.0000    0.83780   0.56980   0.56980   Biso      1.000     C          0.6056520000000001  
         C40       1.0000    0.03070   0.61310   0.61310   Biso      1.000     C          -0.023781           
         C41       1.0000    0.02260   0.56980   0.56980   Biso      1.000     C          0.60568   
         C42       1.0000    0.61310   0.74310   0.03070   Biso      1.000     C          -0.023922           
         C43       1.0000    0.56980   0.83780   0.02260   Biso      1.000     C          0.605622  
         C44       1.0000    0.56980   0.02260   0.83780   Biso      1.000     C          0.6056699999999999  
         C45       1.0000    0.74310   0.03070   0.61310   Biso      1.000     C          -0.020552           
         C46       1.0000    0.61310   0.61310   0.03070   Biso      1.000     C          -0.023924           
         C47       1.0000    0.56980   0.56980   0.02260   Biso      1.000     C          0.605654  
         C48       1.0000    0.61310   0.61310   0.74310   Biso      1.000     C          -0.02391  
         C49       1.0000    0.56980   0.56980   0.83780   Biso      1.000     C          0.60564   
         C50       1.0000    0.03070   0.74310   0.61310   Biso      1.000     C          -0.020562999999999998         
         C51       1.0000    0.02260   0.83780   0.56980   Biso      1.000     C          0.604584  
         C52       1.0000    0.83780   0.02260   0.56980   Biso      1.000     C          0.604621  
         C53       1.0000    0.61310   0.03070   0.74310   Biso      1.000     C          -0.023777           
         C54       1.0000    0.56980   0.83780   0.56980   Biso      1.000     C          0.604576  
         C55       1.0000    0.61310   0.74310   0.61310   Biso      1.000     C          -0.020676           
         C56       1.0000    0.25690   0.38690   0.96930   Biso      1.000     C          -0.02068  
         C57       1.0000    0.16220   0.43020   0.97740   Biso      1.000     C          0.6045729999999999  
         C58       1.0000    0.96930   0.25690   0.38690   Biso      1.000     C          -0.020551           
         C59       1.0000    0.38690   0.38690   0.96930   Biso      1.000     C          -0.023912           
         C60       1.0000    0.43020   0.43020   0.97740   Biso      1.000     C          0.605638  
         C61       1.0000    0.38690   0.38690   0.25690   Biso      1.000     C          -0.023923           
         C62       1.0000    0.43020   0.43020   0.16220   Biso      1.000     C          0.605655  
         C63       1.0000    0.25690   0.96930   0.38690   Biso      1.000     C          -0.020562999999999998         
         C64       1.0000    0.16220   0.97740   0.43020   Biso      1.000     C          0.604587  
         C65       1.0000    0.61310   0.03070   0.61310   Biso      1.000     C          -0.020538999999999998         
         C66       1.0000    0.56980   0.02260   0.56980   Biso      1.000     C          0.604578  
         C67       1.0000    0.03070   0.61310   0.74310   Biso      1.000     C          -0.020528           
         C68       1.0000    0.02260   0.56980   0.83780   Biso      1.000     C          0.604612  
         C69       1.0000    0.74310   0.61310   0.03070   Biso      1.000     C          -0.020677           
         C70       1.0000    0.83780   0.56980   0.02260   Biso      1.000     C          0.604576  
         C71       1.0000    0.38690   0.25690   0.38690   Biso      1.000     C          -0.020675           
         C72       1.0000    0.43020   0.16220   0.43020   Biso      1.000     C          0.604576  
         Cu1       1.0000    0.00000   0.42998   0.57002   Biso      1.000     Cu          0.881331  
         Cu2       1.0000    0.00000   0.42998   0.00000   Biso      1.000     Cu          0.873928  
         Cu3       1.0000    0.00000   0.00000   0.57002   Biso      1.000     Cu          0.8741899999999999  
         Cu4       1.0000    0.57002   0.42998   0.00000   Biso      1.000     Cu          0.881258  
         Cu5       1.0000    0.42998   0.57002   0.00000   Biso      1.000     Cu          0.881453  
         Cu6       1.0000    0.57002   0.00000   0.42998   Biso      1.000     Cu          0.8739540000000001  
         Cu7       1.0000    0.42998   0.00000   0.57002   Biso      1.000     Cu          0.874878  
         Cu8       1.0000    0.00000   0.00000   0.42998   Biso      1.000     Cu          0.87482   
         Cu9       1.0000    0.00000   0.57002   0.42998   Biso      1.000     Cu          0.881418  
         Cu10      1.0000    0.57002   0.00000   0.00000   Biso      1.000     Cu          0.8812840000000001  
         Cu11      1.0000    0.42998   0.00000   0.00000   Biso      1.000     Cu          0.881391  
         Cu12      1.0000    0.00000   0.57002   0.00000   Biso      1.000     Cu          0.87485   
         H1        1.0000    0.97170   0.48610   0.27110   Biso      1.000     H          0.128334  
         H2        1.0000    0.02830   0.72890   0.51390   Biso      1.000     H          0.128339  
         H3        1.0000    0.97170   0.27110   0.48610   Biso      1.000     H          0.128332  
         H4        1.0000    0.27110   0.97170   0.27110   Biso      1.000     H          0.128341  
         H5        1.0000    0.48610   0.27110   0.97170   Biso      1.000     H          0.12811199999999998           
         H6        1.0000    0.27110   0.48610   0.27110   Biso      1.000     H          0.128111  
         H7        1.0000    0.27110   0.27110   0.48610   Biso      1.000     H          0.12831700000000001           
         H8        1.0000    0.72890   0.51390   0.72890   Biso      1.000     H          0.128116  
         H9        1.0000    0.27110   0.27110   0.97170   Biso      1.000     H          0.12831199999999998           
         H10       1.0000    0.51390   0.72890   0.02830   Biso      1.000     H          0.128105  
         H11       1.0000    0.48610   0.97170   0.27110   Biso      1.000     H          0.128334  
         H12       1.0000    0.72890   0.02830   0.72890   Biso      1.000     H          0.12833599999999998           
         H13       1.0000    0.72890   0.72890   0.02830   Biso      1.000     H          0.128316  
         H14       1.0000    0.72890   0.72890   0.51390   Biso      1.000     H          0.128313  
         H15       1.0000    0.51390   0.02830   0.72890   Biso      1.000     H          0.12833599999999998           
         H16       1.0000    0.51390   0.72890   0.72890   Biso      1.000     H          0.12831199999999998           
         H17       1.0000    0.02830   0.51390   0.72890   Biso      1.000     H          0.128332  
         H18       1.0000    0.02830   0.72890   0.72890   Biso      1.000     H          0.12853699999999998           
         H19       1.0000    0.72890   0.02830   0.51390   Biso      1.000     H          0.12854100000000002           
         H20       1.0000    0.97170   0.27110   0.27110   Biso      1.000     H          0.12853900000000001           
         H21       1.0000    0.27110   0.97170   0.48610   Biso      1.000     H          0.12853900000000001           
         H22       1.0000    0.48610   0.27110   0.27110   Biso      1.000     H          0.12831099999999998           
         H23       1.0000    0.72890   0.51390   0.02830   Biso      1.000     H          0.12830899999999998           
         H24       1.0000    0.27110   0.48610   0.97170   Biso      1.000     H          0.12830899999999998           
         O1        1.0000    0.61289   0.02007   0.87399   Biso      1.000     O          -0.529524           
         O2        1.0000    0.02007   0.87399   0.61289   Biso      1.000     O          -0.52937  
         O3        1.0000    0.87399   0.61289   0.02007   Biso      1.000     O          -0.5295989999999999           
         O4        1.0000    0.49305   0.02007   0.61289   Biso      1.000     O          -0.529563           
         O5        1.0000    0.02007   0.49305   0.87399   Biso      1.000     O          -0.5295979999999999           
         O6        1.0000    0.87399   0.49305   0.61289   Biso      1.000     O          -0.5297350000000001           
         O7        1.0000    0.49305   0.87399   0.02007   Biso      1.000     O          -0.52964  
         O8        1.0000    0.61289   0.49305   0.02007   Biso      1.000     O          -0.52964  
         O9        1.0000    0.61289   0.87399   0.49305   Biso      1.000     O          -0.5295380000000001           
         O10       1.0000    0.49305   0.61289   0.87399   Biso      1.000     O          -0.529614           
         O11       1.0000    0.12601   0.38711   0.50695   Biso      1.000     O          -0.52957  
         O12       1.0000    0.38711   0.97993   0.50695   Biso      1.000     O          -0.529517           
         O13       1.0000    0.97993   0.38711   0.12601   Biso      1.000     O          -0.5293770000000001           
         O14       1.0000    0.12601   0.50695   0.97993   Biso      1.000     O          -0.5296069999999999           
         O15       1.0000    0.50695   0.12601   0.38711   Biso      1.000     O          -0.5295489999999999           
         O16       1.0000    0.50695   0.97993   0.12601   Biso      1.000     O          -0.5295310000000001           
         O17       1.0000    0.97993   0.50695   0.38711   Biso      1.000     O          -0.529605           
         O18       1.0000    0.38711   0.12601   0.97993   Biso      1.000     O          -0.529612           
         O19       1.0000    0.12601   0.97993   0.38711   Biso      1.000     O          -0.529532           
         O20       1.0000    0.50695   0.38711   0.97993   Biso      1.000     O          -0.529658           
         O21       1.0000    0.02007   0.61289   0.49305   Biso      1.000     O          -0.5295989999999999           
         O22       1.0000    0.87399   0.02007   0.49305   Biso      1.000     O          -0.529488           
         O23       1.0000    0.02007   0.87399   0.49305   Biso      1.000     O          -0.5295340000000001           
         O24       1.0000    0.50695   0.97993   0.38711   Biso      1.000     O          -0.529605           
         O25       1.0000    0.49305   0.61289   0.02007   Biso      1.000     O          -0.5297729999999999           
         O26       1.0000    0.38711   0.50695   0.12601   Biso      1.000     O          -0.529774           
         O27       1.0000    0.97993   0.38711   0.50695   Biso      1.000     O          -0.529536           
         O28       1.0000    0.38711   0.97993   0.12601   Biso      1.000     O          -0.529591           
         O29       1.0000    0.50695   0.12601   0.97993   Biso      1.000     O          -0.529724           
         O30       1.0000    0.12601   0.50695   0.38711   Biso      1.000     O          -0.529652           
         O31       1.0000    0.97993   0.50695   0.12601   Biso      1.000     O          -0.5295569999999999           
         O32       1.0000    0.38711   0.12601   0.50695   Biso      1.000     O          -0.529605           
         O33       1.0000    0.12601   0.38711   0.97993   Biso      1.000     O          -0.5295310000000001           
         O34       1.0000    0.97993   0.12601   0.38711   Biso      1.000     O          -0.529487           
         O35       1.0000    0.38711   0.50695   0.97993   Biso      1.000     O          -0.5296109999999999           
         O36       1.0000    0.50695   0.38711   0.12601   Biso      1.000     O          -0.529641           
         O37       1.0000    0.12601   0.97993   0.50695   Biso      1.000     O          -0.529371           
         O38       1.0000    0.61289   0.02007   0.49305   Biso      1.000     O          -0.529384           
         O39       1.0000    0.02007   0.61289   0.87399   Biso      1.000     O          -0.52951  
         O40       1.0000    0.87399   0.49305   0.02007   Biso      1.000     O          -0.529541           
         O41       1.0000    0.49305   0.87399   0.61289   Biso      1.000     O          -0.529616           
         O42       1.0000    0.49305   0.02007   0.87399   Biso      1.000     O          -0.529601           
         O43       1.0000    0.87399   0.61289   0.49305   Biso      1.000     O          -0.529616           
         O44       1.0000    0.02007   0.49305   0.61289   Biso      1.000     O          -0.529539           
         O45       1.0000    0.61289   0.87399   0.02007   Biso      1.000     O          -0.529558           
         O46       1.0000    0.87399   0.02007   0.61289   Biso      1.000     O          -0.529579           
         O47       1.0000    0.61289   0.49305   0.87399   Biso      1.000     O          -0.52966  
         O48       1.0000    0.97993   0.12601   0.50695   Biso      1.000     O          -0.52958 