
##########################################################################
#               Crystallographic Information Format file
#               Produced by PyCifRW module
#
#  This is a CIF file.  CIF has been adopted by the International
#  Union of Crystallography as the standard for data archiving and
#  transmission.
#
#  For information on this file format, follow the CIF links at
#  http://www.iucr.org
##########################################################################

data_image0

_cell_length_a                          18.3471
_cell_length_b                          18.3471
_cell_length_c                          18.3471
_cell_angle_alpha                       60
_cell_angle_beta                        60
_cell_angle_gamma                       60
_symmetry_space_group_name_H-M          'P 1'
_symmetry_int_tables_number             1
loop_
  _symmetry_equiv_pos_as_xyz
         'x, y, z' 
loop_
  _atom_site_label
  _atom_site_occupancy
  _atom_site_fract_x
  _atom_site_fract_y
  _atom_site_fract_z
  _atom_site_thermal_displace_type
  _atom_site_B_iso_or_equiv
  _atom_site_type_symbol
  _atom_site_charge
         C1        1.0000    0.97740   0.16140   0.43060   Biso      1.000     C          0.593506  
         C2        1.0000    0.56870   0.69750   0.69750   Biso      1.000     C          -0.098941           
         C3        1.0000    0.69750   0.56870   0.03630   Biso      1.000     C          -0.098131           
         C4        1.0000    0.03630   0.69750   0.69750   Biso      1.000     C          -0.098122           
         C5        1.0000    0.69750   0.03630   0.56870   Biso      1.000     C          -0.098941           
         C6        1.0000    0.30250   0.96370   0.43130   Biso      1.000     C          -0.09894  
         C7        1.0000    0.43130   0.30250   0.30250   Biso      1.000     C          -0.098942           
         C8        1.0000    0.56870   0.03630   0.69750   Biso      1.000     C          -0.098942           
         C9        1.0000    0.30250   0.43130   0.96370   Biso      1.000     C          -0.098121           
         C10       1.0000    0.30250   0.30250   0.96370   Biso      1.000     C          -0.098131           
         C11       1.0000    0.43130   0.96370   0.30250   Biso      1.000     C          -0.09894  
         C12       1.0000    0.30250   0.30250   0.43130   Biso      1.000     C          -0.098942           
         C13       1.0000    0.96370   0.43130   0.30250   Biso      1.000     C          -0.098122           
         C14       1.0000    0.30250   0.43130   0.30250   Biso      1.000     C          -0.097635           
         C15       1.0000    0.43130   0.30250   0.96370   Biso      1.000     C          -0.097672           
         C16       1.0000    0.96370   0.30250   0.30250   Biso      1.000     C          -0.098131           
         C17       1.0000    0.30250   0.96370   0.30250   Biso      1.000     C          -0.097639           
         C18       1.0000    0.69750   0.69750   0.56870   Biso      1.000     C          -0.098941           
         C19       1.0000    0.69750   0.69750   0.03630   Biso      1.000     C          -0.098121           
         C20       1.0000    0.97740   0.43060   0.16140   Biso      1.000     C          0.592076  
         C21       1.0000    0.96250   0.38910   0.25930   Biso      1.000     C          -0.010671           
         C22       1.0000    0.16140   0.43060   0.43060   Biso      1.000     C          0.593531  
         C23       1.0000    0.25930   0.38910   0.38910   Biso      1.000     C          -0.012992           
         C24       1.0000    0.43060   0.16140   0.97740   Biso      1.000     C          0.593504  
         C25       1.0000    0.38910   0.25930   0.96250   Biso      1.000     C          -0.013365           
         C26       1.0000    0.03630   0.56870   0.69750   Biso      1.000     C          -0.098131           
         C27       1.0000    0.43060   0.97740   0.16140   Biso      1.000     C          0.593528  
         C28       1.0000    0.97740   0.43060   0.43060   Biso      1.000     C          0.59352   
         C29       1.0000    0.96250   0.38910   0.38910   Biso      1.000     C          -0.013374           
         C30       1.0000    0.03630   0.69750   0.56870   Biso      1.000     C          -0.097672           
         C31       1.0000    0.69750   0.56870   0.69750   Biso      1.000     C          -0.097639           
         C32       1.0000    0.56870   0.69750   0.03630   Biso      1.000     C          -0.097672           
         C33       1.0000    0.69750   0.03630   0.69750   Biso      1.000     C          -0.097634           
         C34       1.0000    0.38910   0.96250   0.25930   Biso      1.000     C          -0.012993           
         C35       1.0000    0.96370   0.30250   0.43130   Biso      1.000     C          -0.097668           
         C36       1.0000    0.38910   0.96250   0.38910   Biso      1.000     C          -0.006615           
         C37       1.0000    0.43060   0.97740   0.43060   Biso      1.000     C          0.587417  
         C38       1.0000    0.74070   0.61090   0.61090   Biso      1.000     C          -0.012993           
         C39       1.0000    0.83860   0.56940   0.56940   Biso      1.000     C          0.59353   
         C40       1.0000    0.03750   0.61090   0.61090   Biso      1.000     C          -0.013364           
         C41       1.0000    0.02260   0.56940   0.56940   Biso      1.000     C          0.593506  
         C42       1.0000    0.61090   0.74070   0.03750   Biso      1.000     C          -0.01337  
         C43       1.0000    0.56940   0.83860   0.02260   Biso      1.000     C          0.593517  
         C44       1.0000    0.56940   0.02260   0.83860   Biso      1.000     C          0.593529  
         C45       1.0000    0.74070   0.03750   0.61090   Biso      1.000     C          -0.012992           
         C46       1.0000    0.61090   0.61090   0.03750   Biso      1.000     C          -0.013365           
         C47       1.0000    0.56940   0.56940   0.02260   Biso      1.000     C          0.593504  
         C48       1.0000    0.61090   0.61090   0.74070   Biso      1.000     C          -0.012993           
         C49       1.0000    0.56940   0.56940   0.83860   Biso      1.000     C          0.593528  
         C50       1.0000    0.03750   0.74070   0.61090   Biso      1.000     C          -0.01337  
         C51       1.0000    0.02260   0.83860   0.56940   Biso      1.000     C          0.593519  
         C52       1.0000    0.83860   0.02260   0.56940   Biso      1.000     C          0.593531  
         C53       1.0000    0.61090   0.03750   0.74070   Biso      1.000     C          -0.012992           
         C54       1.0000    0.56940   0.83860   0.56940   Biso      1.000     C          0.587416  
         C55       1.0000    0.61090   0.74070   0.61090   Biso      1.000     C          -0.006615           
         C56       1.0000    0.25930   0.38910   0.96250   Biso      1.000     C          -0.010671           
         C57       1.0000    0.16140   0.43060   0.97740   Biso      1.000     C          0.592076  
         C58       1.0000    0.96250   0.25930   0.38910   Biso      1.000     C          -0.013365           
         C59       1.0000    0.38910   0.38910   0.96250   Biso      1.000     C          -0.01337  
         C60       1.0000    0.43060   0.43060   0.97740   Biso      1.000     C          0.593517  
         C61       1.0000    0.38910   0.38910   0.25930   Biso      1.000     C          -0.012992           
         C62       1.0000    0.43060   0.43060   0.16140   Biso      1.000     C          0.593529  
         C63       1.0000    0.25930   0.96250   0.38910   Biso      1.000     C          -0.012993           
         C64       1.0000    0.16140   0.97740   0.43060   Biso      1.000     C          0.59353   
         C65       1.0000    0.61090   0.03750   0.61090   Biso      1.000     C          -0.006615           
         C66       1.0000    0.56940   0.02260   0.56940   Biso      1.000     C          0.587417  
         C67       1.0000    0.03750   0.61090   0.74070   Biso      1.000     C          -0.010671           
         C68       1.0000    0.02260   0.56940   0.83860   Biso      1.000     C          0.592076  
         C69       1.0000    0.74070   0.61090   0.03750   Biso      1.000     C          -0.010671           
         C70       1.0000    0.83860   0.56940   0.02260   Biso      1.000     C          0.592076  
         C71       1.0000    0.38910   0.25930   0.38910   Biso      1.000     C          -0.006615           
         C72       1.0000    0.43060   0.16140   0.43060   Biso      1.000     C          0.587416  
         Cu1       1.0000    0.00000   0.42920   0.57080   Biso      1.000     Cu          0.91008   
         Cu2       1.0000    0.00000   0.42920   0.00000   Biso      1.000     Cu          0.903027  
         Cu3       1.0000    0.00000   0.00000   0.57080   Biso      1.000     Cu          0.91      
         Cu4       1.0000    0.57080   0.42920   0.00000   Biso      1.000     Cu          0.910066  
         Cu5       1.0000    0.42920   0.57080   0.00000   Biso      1.000     Cu          0.909986  
         Cu6       1.0000    0.57080   0.00000   0.42920   Biso      1.000     Cu          0.871829  
         Cu7       1.0000    0.42920   0.00000   0.57080   Biso      1.000     Cu          0.871831  
         Cu8       1.0000    0.00000   0.00000   0.42920   Biso      1.000     Cu          0.91008   
         Cu9       1.0000    0.00000   0.57080   0.42920   Biso      1.000     Cu          0.91      
         Cu10      1.0000    0.57080   0.00000   0.00000   Biso      1.000     Cu          0.909987  
         Cu11      1.0000    0.42920   0.00000   0.00000   Biso      1.000     Cu          0.910066  
         Cu12      1.0000    0.00000   0.57080   0.00000   Biso      1.000     Cu          0.901972  
         H1        1.0000    0.96410   0.49090   0.27250   Biso      1.000     H          0.133633  
         H2        1.0000    0.03590   0.72750   0.50910   Biso      1.000     H          0.133425  
         H3        1.0000    0.96410   0.27250   0.49090   Biso      1.000     H          0.133425  
         H4        1.0000    0.27250   0.96410   0.27250   Biso      1.000     H          0.133463  
         H5        1.0000    0.49090   0.27250   0.96410   Biso      1.000     H          0.133426  
         H6        1.0000    0.27250   0.49090   0.27250   Biso      1.000     H          0.133465  
         H7        1.0000    0.27250   0.27250   0.49090   Biso      1.000     H          0.133956  
         H8        1.0000    0.72750   0.50910   0.72750   Biso      1.000     H          0.133463  
         H9        1.0000    0.27250   0.27250   0.96410   Biso      1.000     H          0.133632  
         H10       1.0000    0.50910   0.72750   0.03590   Biso      1.000     H          0.133426  
         H11       1.0000    0.49090   0.96410   0.27250   Biso      1.000     H          0.133956  
         H12       1.0000    0.72750   0.03590   0.72750   Biso      1.000     H          0.133465  
         H13       1.0000    0.72750   0.72750   0.03590   Biso      1.000     H          0.133633  
         H14       1.0000    0.72750   0.72750   0.50910   Biso      1.000     H          0.133956  
         H15       1.0000    0.50910   0.03590   0.72750   Biso      1.000     H          0.133956  
         H16       1.0000    0.50910   0.72750   0.72750   Biso      1.000     H          0.133956  
         H17       1.0000    0.03590   0.50910   0.72750   Biso      1.000     H          0.133633  
         H18       1.0000    0.03590   0.72750   0.72750   Biso      1.000     H          0.133633  
         H19       1.0000    0.72750   0.03590   0.50910   Biso      1.000     H          0.133955  
         H20       1.0000    0.96410   0.27250   0.27250   Biso      1.000     H          0.133632  
         H21       1.0000    0.27250   0.96410   0.49090   Biso      1.000     H          0.133957  
         H22       1.0000    0.49090   0.27250   0.27250   Biso      1.000     H          0.133955  
         H23       1.0000    0.72750   0.50910   0.03590   Biso      1.000     H          0.133633  
         H24       1.0000    0.27250   0.49090   0.96410   Biso      1.000     H          0.133634  
         O1        1.0000    0.61280   0.02040   0.87620   Biso      1.000     O          -0.535119           
         O2        1.0000    0.02040   0.87620   0.61280   Biso      1.000     O          -0.53508  
         O3        1.0000    0.87620   0.61280   0.02040   Biso      1.000     O          -0.534423           
         O4        1.0000    0.49060   0.02040   0.61280   Biso      1.000     O          -0.52705  
         O5        1.0000    0.02040   0.49060   0.87620   Biso      1.000     O          -0.534503           
         O6        1.0000    0.87620   0.49060   0.61280   Biso      1.000     O          -0.535137           
         O7        1.0000    0.49060   0.87620   0.02040   Biso      1.000     O          -0.535174           
         O8        1.0000    0.61280   0.49060   0.02040   Biso      1.000     O          -0.53505  
         O9        1.0000    0.61280   0.87620   0.49060   Biso      1.000     O          -0.527049           
         O10       1.0000    0.49060   0.61280   0.87620   Biso      1.000     O          -0.534868           
         O11       1.0000    0.12380   0.38720   0.50940   Biso      1.000     O          -0.534879           
         O12       1.0000    0.38720   0.97960   0.50940   Biso      1.000     O          -0.527048           
         O13       1.0000    0.97960   0.38720   0.12380   Biso      1.000     O          -0.534503           
         O14       1.0000    0.12380   0.50940   0.97960   Biso      1.000     O          -0.534423           
         O15       1.0000    0.50940   0.12380   0.38720   Biso      1.000     O          -0.527051           
         O16       1.0000    0.50940   0.97960   0.12380   Biso      1.000     O          -0.534868           
         O17       1.0000    0.97960   0.50940   0.38720   Biso      1.000     O          -0.535079           
         O18       1.0000    0.38720   0.12380   0.97960   Biso      1.000     O          -0.53505  
         O19       1.0000    0.12380   0.97960   0.38720   Biso      1.000     O          -0.535137           
         O20       1.0000    0.50940   0.38720   0.97960   Biso      1.000     O          -0.535174           
         O21       1.0000    0.02040   0.61280   0.49060   Biso      1.000     O          -0.535091           
         O22       1.0000    0.87620   0.02040   0.49060   Biso      1.000     O          -0.534878           
         O23       1.0000    0.02040   0.87620   0.49060   Biso      1.000     O          -0.535178           
         O24       1.0000    0.50940   0.97960   0.38720   Biso      1.000     O          -0.527049           
         O25       1.0000    0.49060   0.61280   0.02040   Biso      1.000     O          -0.535087           
         O26       1.0000    0.38720   0.50940   0.12380   Biso      1.000     O          -0.535119           
         O27       1.0000    0.97960   0.38720   0.50940   Biso      1.000     O          -0.535178           
         O28       1.0000    0.38720   0.97960   0.12380   Biso      1.000     O          -0.535133           
         O29       1.0000    0.50940   0.12380   0.97960   Biso      1.000     O          -0.535087           
         O30       1.0000    0.12380   0.50940   0.38720   Biso      1.000     O          -0.535124           
         O31       1.0000    0.97960   0.50940   0.12380   Biso      1.000     O          -0.534423           
         O32       1.0000    0.38720   0.12380   0.50940   Biso      1.000     O          -0.52705  
         O33       1.0000    0.12380   0.38720   0.97960   Biso      1.000     O          -0.534503           
         O34       1.0000    0.97960   0.12380   0.38720   Biso      1.000     O          -0.535055           
         O35       1.0000    0.38720   0.50940   0.97960   Biso      1.000     O          -0.535075           
         O36       1.0000    0.50940   0.38720   0.12380   Biso      1.000     O          -0.534875           
         O37       1.0000    0.12380   0.97960   0.50940   Biso      1.000     O          -0.534872           
         O38       1.0000    0.61280   0.02040   0.49060   Biso      1.000     O          -0.52705  
         O39       1.0000    0.02040   0.61280   0.87620   Biso      1.000     O          -0.534423           
         O40       1.0000    0.87620   0.49060   0.02040   Biso      1.000     O          -0.534503           
         O41       1.0000    0.49060   0.87620   0.61280   Biso      1.000     O          -0.527048           
         O42       1.0000    0.49060   0.02040   0.87620   Biso      1.000     O          -0.534874           
         O43       1.0000    0.87620   0.61280   0.49060   Biso      1.000     O          -0.534872           
         O44       1.0000    0.02040   0.49060   0.61280   Biso      1.000     O          -0.535054           
         O45       1.0000    0.61280   0.87620   0.02040   Biso      1.000     O          -0.535075           
         O46       1.0000    0.87620   0.02040   0.61280   Biso      1.000     O          -0.535124           
         O47       1.0000    0.61280   0.49060   0.87620   Biso      1.000     O          -0.535133           
         O48       1.0000    0.97960   0.12380   0.50940   Biso      1.000     O          -0.535091 