
##########################################################################
#               Crystallographic Information Format file
#               Produced by PyCifRW module
#
#  This is a CIF file.  CIF has been adopted by the International
#  Union of Crystallography as the standard for data archiving and
#  transmission.
#
#  For information on this file format, follow the CIF links at
#  http://www.iucr.org
##########################################################################

data_image0

_cell_length_a                          18.598
_cell_length_b                          18.598
_cell_length_c                          18.598
_cell_angle_alpha                       60
_cell_angle_beta                        60
_cell_angle_gamma                       60
_symmetry_space_group_name_H-M          'P 1'
_symmetry_int_tables_number             1
loop_
  _symmetry_equiv_pos_as_xyz
         'x, y, z' 
loop_
  _atom_site_label
  _atom_site_occupancy
  _atom_site_fract_x
  _atom_site_fract_y
  _atom_site_fract_z
  _atom_site_thermal_displace_type
  _atom_site_B_iso_or_equiv
  _atom_site_type_symbol
  _atom_site_charge
         C1        1.0000    0.43099   0.16203   0.43099   Biso      1.000     C          0.598618  
         C2        1.0000    0.03144   0.69942   0.56972   Biso      1.000     C          -0.09765  
         C3        1.0000    0.69942   0.03144   0.69942   Biso      1.000     C          -0.098137           
         C4        1.0000    0.69942   0.56972   0.69942   Biso      1.000     C          -0.097607           
         C5        1.0000    0.56972   0.69942   0.03144   Biso      1.000     C          -0.098202           
         C6        1.0000    0.30058   0.30058   0.96856   Biso      1.000     C          -0.098199           
         C7        1.0000    0.96856   0.43028   0.30058   Biso      1.000     C          -0.097647           
         C8        1.0000    0.03144   0.69942   0.69942   Biso      1.000     C          -0.098213           
         C9        1.0000    0.43028   0.96856   0.30058   Biso      1.000     C          -0.09907300000000001          
         C10       1.0000    0.30058   0.43028   0.30058   Biso      1.000     C          -0.097626           
         C11       1.0000    0.96856   0.30058   0.43028   Biso      1.000     C          -0.09766799999999999          
         C12       1.0000    0.43028   0.30058   0.96856   Biso      1.000     C          -0.098209           
         C13       1.0000    0.30058   0.96856   0.30058   Biso      1.000     C          -0.098142           
         C14       1.0000    0.30058   0.96856   0.43028   Biso      1.000     C          -0.099064           
         C15       1.0000    0.96856   0.30058   0.30058   Biso      1.000     C          -0.098212           
         C16       1.0000    0.30058   0.30058   0.43028   Biso      1.000     C          -0.098525           
         C17       1.0000    0.43028   0.30058   0.30058   Biso      1.000     C          -0.09911299999999999          
         C18       1.0000    0.69942   0.56972   0.03144   Biso      1.000     C          -0.09817999999999999          
         C19       1.0000    0.56972   0.69942   0.69942   Biso      1.000     C          -0.099097           
         C20       1.0000    0.43099   0.97599   0.16203   Biso      1.000     C          0.602934  
         C21       1.0000    0.38687   0.96887   0.25739   Biso      1.000     C          -0.02044  
         C22       1.0000    0.16203   0.97599   0.43099   Biso      1.000     C          0.60292   
         C23       1.0000    0.25739   0.96887   0.38687   Biso      1.000     C          -0.020424           
         C24       1.0000    0.97599   0.16203   0.43099   Biso      1.000     C          0.60285   
         C25       1.0000    0.96887   0.25739   0.38687   Biso      1.000     C          -0.020845           
         C26       1.0000    0.69942   0.03144   0.56972   Biso      1.000     C          -0.099075           
         C27       1.0000    0.43099   0.43099   0.16203   Biso      1.000     C          0.6028979999999999  
         C28       1.0000    0.43099   0.43099   0.97599   Biso      1.000     C          0.6028819999999999  
         C29       1.0000    0.38687   0.38687   0.96887   Biso      1.000     C          -0.020745           
         C30       1.0000    0.69942   0.69942   0.03144   Biso      1.000     C          -0.09820599999999999          
         C31       1.0000    0.56972   0.03144   0.69942   Biso      1.000     C          -0.09907200000000001          
         C32       1.0000    0.03144   0.56972   0.69942   Biso      1.000     C          -0.097666           
         C33       1.0000    0.69942   0.69942   0.56972   Biso      1.000     C          -0.09853200000000001          
         C34       1.0000    0.38687   0.38687   0.25739   Biso      1.000     C          -0.020525           
         C35       1.0000    0.30058   0.43028   0.96856   Biso      1.000     C          -0.098177           
         C36       1.0000    0.96887   0.38687   0.38687   Biso      1.000     C          -0.024349000000000003         
         C37       1.0000    0.97599   0.43099   0.43099   Biso      1.000     C          0.603971  
         C38       1.0000    0.74261   0.61313   0.03113   Biso      1.000     C          -0.020706           
         C39       1.0000    0.83797   0.56901   0.02401   Biso      1.000     C          0.602877  
         C40       1.0000    0.61313   0.03113   0.61313   Biso      1.000     C          -0.015862           
         C41       1.0000    0.56901   0.02401   0.56901   Biso      1.000     C          0.5986600000000001  
         C42       1.0000    0.61313   0.74261   0.61313   Biso      1.000     C          -0.01596  
         C43       1.0000    0.56901   0.83797   0.56901   Biso      1.000     C          0.598626  
         C44       1.0000    0.02401   0.56901   0.83797   Biso      1.000     C          0.602849  
         C45       1.0000    0.74261   0.61313   0.61313   Biso      1.000     C          -0.024008           
         C46       1.0000    0.03113   0.61313   0.61313   Biso      1.000     C          -0.024352000000000002         
         C47       1.0000    0.02401   0.56901   0.56901   Biso      1.000     C          0.60397   
         C48       1.0000    0.61313   0.03113   0.74261   Biso      1.000     C          -0.020442           
         C49       1.0000    0.56901   0.02401   0.83797   Biso      1.000     C          0.6029329999999999  
         C50       1.0000    0.61313   0.74261   0.03113   Biso      1.000     C          -0.020766           
         C51       1.0000    0.56901   0.83797   0.02401   Biso      1.000     C          0.602895  
         C52       1.0000    0.83797   0.56901   0.56901   Biso      1.000     C          0.60402   
         C53       1.0000    0.03113   0.61313   0.74261   Biso      1.000     C          -0.020801           
         C54       1.0000    0.02401   0.83797   0.56901   Biso      1.000     C          0.602812  
         C55       1.0000    0.03113   0.74261   0.61313   Biso      1.000     C          -0.020858           
         C56       1.0000    0.25739   0.38687   0.38687   Biso      1.000     C          -0.024041999999999997         
         C57       1.0000    0.16203   0.43099   0.43099   Biso      1.000     C          0.604029  
         C58       1.0000    0.38687   0.25739   0.38687   Biso      1.000     C          -0.015975           
         C59       1.0000    0.38687   0.96887   0.38687   Biso      1.000     C          -0.015859           
         C60       1.0000    0.43099   0.97599   0.43099   Biso      1.000     C          0.598662  
         C61       1.0000    0.96887   0.38687   0.25739   Biso      1.000     C          -0.020814           
         C62       1.0000    0.97599   0.43099   0.16203   Biso      1.000     C          0.602809  
         C63       1.0000    0.25739   0.38687   0.96887   Biso      1.000     C          -0.020706           
         C64       1.0000    0.16203   0.43099   0.97599   Biso      1.000     C          0.6028789999999999  
         C65       1.0000    0.61313   0.61313   0.03113   Biso      1.000     C          -0.020743           
         C66       1.0000    0.56901   0.56901   0.02401   Biso      1.000     C          0.6028819999999999  
         C67       1.0000    0.61313   0.61313   0.74261   Biso      1.000     C          -0.020522           
         C68       1.0000    0.56901   0.56901   0.83797   Biso      1.000     C          0.602866  
         C69       1.0000    0.74261   0.03113   0.61313   Biso      1.000     C          -0.020423           
         C70       1.0000    0.83797   0.02401   0.56901   Biso      1.000     C          0.602923  
         C71       1.0000    0.38687   0.25739   0.96887   Biso      1.000     C          -0.020766           
         C72       1.0000    0.43099   0.16203   0.97599   Biso      1.000     C          0.602895  
         Cu1       1.0000    0.57052   0.42948   0.00000   Biso      1.000     Cu          0.871655  
         Cu2       1.0000    0.00000   0.42948   0.57052   Biso      1.000     Cu          0.878915  
         Cu3       1.0000    0.00000   0.57052   0.00000   Biso      1.000     Cu          0.871447  
         Cu4       1.0000    0.00000   0.42948   0.00000   Biso      1.000     Cu          0.871092  
         Cu5       1.0000    0.42948   0.00000   0.57052   Biso      1.000     Cu          0.839951  
         Cu6       1.0000    0.00000   0.57052   0.42948   Biso      1.000     Cu          0.879026  
         Cu7       1.0000    0.42948   0.00000   0.00000   Biso      1.000     Cu          0.8716440000000001  
         Cu8       1.0000    0.57052   0.00000   0.42948   Biso      1.000     Cu          0.839958  
         Cu9       1.0000    0.00000   0.00000   0.42948   Biso      1.000     Cu          0.871575  
         Cu10      1.0000    0.00000   0.00000   0.57052   Biso      1.000     Cu          0.871252  
         Cu11      1.0000    0.42948   0.57052   0.00000   Biso      1.000     Cu          0.8712559999999999  
         Cu12      1.0000    0.57052   0.00000   0.00000   Biso      1.000     Cu          0.871641  
         H1        1.0000    0.27120   0.96820   0.27120   Biso      1.000     H          0.136881  
         H2        1.0000    0.72880   0.72880   0.03180   Biso      1.000     H          0.13684100000000002           
         H3        1.0000    0.27120   0.48940   0.96820   Biso      1.000     H          0.136829  
         H4        1.0000    0.48940   0.27120   0.27120   Biso      1.000     H          0.137149  
         H5        1.0000    0.96820   0.27120   0.27120   Biso      1.000     H          0.13681   
         H6        1.0000    0.27120   0.96820   0.48940   Biso      1.000     H          0.137175  
         H7        1.0000    0.48940   0.27120   0.96820   Biso      1.000     H          0.136844  
         H8        1.0000    0.51060   0.03180   0.72880   Biso      1.000     H          0.137178  
         H9        1.0000    0.27120   0.48940   0.27120   Biso      1.000     H          0.136629  
         H10       1.0000    0.03180   0.51060   0.72880   Biso      1.000     H          0.13658399999999998           
         H11       1.0000    0.96820   0.27120   0.48940   Biso      1.000     H          0.13658499999999998           
         H12       1.0000    0.72880   0.72880   0.51060   Biso      1.000     H          0.136923  
         H13       1.0000    0.51060   0.72880   0.72880   Biso      1.000     H          0.13716   
         H14       1.0000    0.72880   0.51060   0.03180   Biso      1.000     H          0.13683   
         H15       1.0000    0.03180   0.72880   0.72880   Biso      1.000     H          0.136809  
         H16       1.0000    0.03180   0.72880   0.51060   Biso      1.000     H          0.13658900000000002           
         H17       1.0000    0.72880   0.03180   0.51060   Biso      1.000     H          0.13717200000000002           
         H18       1.0000    0.72880   0.51060   0.72880   Biso      1.000     H          0.136641  
         H19       1.0000    0.51060   0.72880   0.03180   Biso      1.000     H          0.136846  
         H20       1.0000    0.27120   0.27120   0.48940   Biso      1.000     H          0.136917  
         H21       1.0000    0.27120   0.27120   0.96820   Biso      1.000     H          0.13684200000000002           
         H22       1.0000    0.96820   0.48940   0.27120   Biso      1.000     H          0.13658800000000001           
         H23       1.0000    0.72880   0.03180   0.72880   Biso      1.000     H          0.136882  
         H24       1.0000    0.48940   0.96820   0.27120   Biso      1.000     H          0.137177  
         O1        1.0000    0.61241   0.49241   0.87385   Biso      1.000     O          -0.528375           
         O2        1.0000    0.49241   0.87385   0.61241   Biso      1.000     O          -0.521323           
         O3        1.0000    0.87385   0.61241   0.49241   Biso      1.000     O          -0.528105           
         O4        1.0000    0.02133   0.49241   0.61241   Biso      1.000     O          -0.528349           
         O5        1.0000    0.49241   0.02133   0.87385   Biso      1.000     O          -0.5279189999999999           
         O6        1.0000    0.87385   0.02133   0.61241   Biso      1.000     O          -0.528278           
         O7        1.0000    0.02133   0.87385   0.49241   Biso      1.000     O          -0.528288           
         O8        1.0000    0.61241   0.02133   0.49241   Biso      1.000     O          -0.521446           
         O9        1.0000    0.61241   0.87385   0.02133   Biso      1.000     O          -0.528243           
         O10       1.0000    0.02133   0.61241   0.87385   Biso      1.000     O          -0.5282819999999999           
         O11       1.0000    0.12615   0.38759   0.97867   Biso      1.000     O          -0.5282060000000001           
         O12       1.0000    0.38759   0.50759   0.97867   Biso      1.000     O          -0.528291           
         O13       1.0000    0.50759   0.38759   0.12615   Biso      1.000     O          -0.528014           
         O14       1.0000    0.12615   0.97867   0.50759   Biso      1.000     O          -0.5279520000000001           
         O15       1.0000    0.97867   0.12615   0.38759   Biso      1.000     O          -0.528251           
         O16       1.0000    0.97867   0.50759   0.12615   Biso      1.000     O          -0.5283180000000001           
         O17       1.0000    0.50759   0.97867   0.38759   Biso      1.000     O          -0.521443           
         O18       1.0000    0.38759   0.12615   0.50759   Biso      1.000     O          -0.521571           
         O19       1.0000    0.12615   0.50759   0.38759   Biso      1.000     O          -0.5283770000000001           
         O20       1.0000    0.97867   0.38759   0.50759   Biso      1.000     O          -0.5283359999999999           
         O21       1.0000    0.49241   0.61241   0.02133   Biso      1.000     O          -0.52817  
         O22       1.0000    0.87385   0.49241   0.02133   Biso      1.000     O          -0.528325           
         O23       1.0000    0.49241   0.87385   0.02133   Biso      1.000     O          -0.528239           
         O24       1.0000    0.97867   0.50759   0.38759   Biso      1.000     O          -0.528407           
         O25       1.0000    0.02133   0.61241   0.49241   Biso      1.000     O          -0.5284   
         O26       1.0000    0.38759   0.97867   0.12615   Biso      1.000     O          -0.528241           
         O27       1.0000    0.50759   0.38759   0.97867   Biso      1.000     O          -0.528181           
         O28       1.0000    0.38759   0.50759   0.12615   Biso      1.000     O          -0.528432           
         O29       1.0000    0.97867   0.12615   0.50759   Biso      1.000     O          -0.528354           
         O30       1.0000    0.12615   0.97867   0.38759   Biso      1.000     O          -0.5282789999999999           
         O31       1.0000    0.50759   0.97867   0.12615   Biso      1.000     O          -0.52792  
         O32       1.0000    0.38759   0.12615   0.97867   Biso      1.000     O          -0.528242           
         O33       1.0000    0.12615   0.38759   0.50759   Biso      1.000     O          -0.528211           
         O34       1.0000    0.50759   0.12615   0.38759   Biso      1.000     O          -0.521314           
         O35       1.0000    0.38759   0.97867   0.50759   Biso      1.000     O          -0.52144  
         O36       1.0000    0.97867   0.38759   0.12615   Biso      1.000     O          -0.528154           
         O37       1.0000    0.12615   0.50759   0.97867   Biso      1.000     O          -0.52833  
         O38       1.0000    0.61241   0.49241   0.02133   Biso      1.000     O          -0.5282979999999999           
         O39       1.0000    0.49241   0.61241   0.87385   Biso      1.000     O          -0.527884           
         O40       1.0000    0.87385   0.02133   0.49241   Biso      1.000     O          -0.5279659999999999           
         O41       1.0000    0.02133   0.87385   0.61241   Biso      1.000     O          -0.528127           
         O42       1.0000    0.02133   0.49241   0.87385   Biso      1.000     O          -0.528389           
         O43       1.0000    0.87385   0.61241   0.02133   Biso      1.000     O          -0.528215           
         O44       1.0000    0.49241   0.02133   0.61241   Biso      1.000     O          -0.521446           
         O45       1.0000    0.61241   0.87385   0.49241   Biso      1.000     O          -0.521591           
         O46       1.0000    0.87385   0.49241   0.61241   Biso      1.000     O          -0.528323           
         O47       1.0000    0.61241   0.02133   0.87385   Biso      1.000     O          -0.5282399999999999           
         O48       1.0000    0.50759   0.12615   0.97867   Biso      1.000     O          -0.528241 