
##########################################################################
#               Crystallographic Information Format file
#               Produced by PyCifRW module
#
#  This is a CIF file.  CIF has been adopted by the International
#  Union of Crystallography as the standard for data archiving and
#  transmission.
#
#  For information on this file format, follow the CIF links at
#  http://www.iucr.org
##########################################################################

data_image0

_cell_length_a                          18.6229
_cell_length_b                          18.6229
_cell_length_c                          18.6229
_cell_angle_alpha                       60
_cell_angle_beta                        60
_cell_angle_gamma                       60
_symmetry_space_group_name_H-M          'P 1'
_symmetry_int_tables_number             1
loop_
  _symmetry_equiv_pos_as_xyz
         'x, y, z' 
loop_
  _atom_site_label
  _atom_site_occupancy
  _atom_site_fract_x
  _atom_site_fract_y
  _atom_site_fract_z
  _atom_site_thermal_displace_type
  _atom_site_B_iso_or_equiv
  _atom_site_type_symbol
  _atom_site_charge
         C1        1.0000    0.97722   0.16238   0.43020   Biso      1.000     C          0.606359  
         C2        1.0000    0.57112   0.69990   0.69990   Biso      1.000     C          -0.096855           
         C3        1.0000    0.69990   0.57112   0.02908   Biso      1.000     C          -0.096377           
         C4        1.0000    0.02908   0.69990   0.69990   Biso      1.000     C          -0.096373           
         C5        1.0000    0.69990   0.02908   0.57112   Biso      1.000     C          -0.09686499999999999          
         C6        1.0000    0.30010   0.97092   0.42888   Biso      1.000     C          -0.09687899999999999          
         C7        1.0000    0.42888   0.30010   0.30010   Biso      1.000     C          -0.096871           
         C8        1.0000    0.57112   0.02908   0.69990   Biso      1.000     C          -0.097385           
         C9        1.0000    0.30010   0.42888   0.97092   Biso      1.000     C          -0.096374           
         C10       1.0000    0.30010   0.30010   0.97092   Biso      1.000     C          -0.09689400000000001          
         C11       1.0000    0.42888   0.97092   0.30010   Biso      1.000     C          -0.097401           
         C12       1.0000    0.30010   0.30010   0.42888   Biso      1.000     C          -0.09739400000000001          
         C13       1.0000    0.97092   0.42888   0.30010   Biso      1.000     C          -0.09687899999999999          
         C14       1.0000    0.30010   0.42888   0.30010   Biso      1.000     C          -0.09688  
         C15       1.0000    0.42888   0.30010   0.97092   Biso      1.000     C          -0.096901           
         C16       1.0000    0.97092   0.30010   0.30010   Biso      1.000     C          -0.096366           
         C17       1.0000    0.30010   0.97092   0.30010   Biso      1.000     C          -0.096873           
         C18       1.0000    0.69990   0.69990   0.57112   Biso      1.000     C          -0.09739400000000001          
         C19       1.0000    0.69990   0.69990   0.02908   Biso      1.000     C          -0.09688  
         C20       1.0000    0.97722   0.43020   0.16238   Biso      1.000     C          0.606334  
         C21       1.0000    0.97040   0.38630   0.25700   Biso      1.000     C          -0.021932           
         C22       1.0000    0.16238   0.43020   0.43020   Biso      1.000     C          0.605402  
         C23       1.0000    0.25700   0.38630   0.38630   Biso      1.000     C          -0.018627           
         C24       1.0000    0.43020   0.16238   0.97722   Biso      1.000     C          0.605364  
         C25       1.0000    0.38630   0.25700   0.97040   Biso      1.000     C          -0.018704           
         C26       1.0000    0.02908   0.57112   0.69990   Biso      1.000     C          -0.09689099999999999          
         C27       1.0000    0.43020   0.97722   0.16238   Biso      1.000     C          0.605391  
         C28       1.0000    0.97722   0.43020   0.43020   Biso      1.000     C          0.605358  
         C29       1.0000    0.97040   0.38630   0.38630   Biso      1.000     C          -0.018737           
         C30       1.0000    0.02908   0.69990   0.57112   Biso      1.000     C          -0.09688200000000001          
         C31       1.0000    0.69990   0.57112   0.69990   Biso      1.000     C          -0.096856           
         C32       1.0000    0.57112   0.69990   0.02908   Biso      1.000     C          -0.096868           
         C33       1.0000    0.69990   0.02908   0.69990   Biso      1.000     C          -0.096863           
         C34       1.0000    0.38630   0.97040   0.25700   Biso      1.000     C          -0.018611000000000003         
         C35       1.0000    0.97092   0.30010   0.42888   Biso      1.000     C          -0.09688300000000001          
         C36       1.0000    0.38630   0.97040   0.38630   Biso      1.000     C          -0.018643           
         C37       1.0000    0.43020   0.97722   0.43020   Biso      1.000     C          0.6054069999999999  
         C38       1.0000    0.74300   0.61370   0.61370   Biso      1.000     C          -0.018608           
         C39       1.0000    0.83762   0.56980   0.56980   Biso      1.000     C          0.605376  
         C40       1.0000    0.02960   0.61370   0.61370   Biso      1.000     C          -0.018734999999999998         
         C41       1.0000    0.02278   0.56980   0.56980   Biso      1.000     C          0.605356  
         C42       1.0000    0.61370   0.74300   0.02960   Biso      1.000     C          -0.018699           
         C43       1.0000    0.56980   0.83762   0.02278   Biso      1.000     C          0.605298  
         C44       1.0000    0.56980   0.02278   0.83762   Biso      1.000     C          0.605363  
         C45       1.0000    0.74300   0.02960   0.61370   Biso      1.000     C          -0.021808           
         C46       1.0000    0.61370   0.61370   0.02960   Biso      1.000     C          -0.021908           
         C47       1.0000    0.56980   0.56980   0.02278   Biso      1.000     C          0.6063470000000001  
         C48       1.0000    0.61370   0.61370   0.74300   Biso      1.000     C          -0.0218   
         C49       1.0000    0.56980   0.56980   0.83762   Biso      1.000     C          0.6063729999999999  
         C50       1.0000    0.02960   0.74300   0.61370   Biso      1.000     C          -0.021946           
         C51       1.0000    0.02278   0.83762   0.56980   Biso      1.000     C          0.60634   
         C52       1.0000    0.83762   0.02278   0.56980   Biso      1.000     C          0.6063890000000001  
         C53       1.0000    0.61370   0.02960   0.74300   Biso      1.000     C          -0.018594           
         C54       1.0000    0.56980   0.83762   0.56980   Biso      1.000     C          0.60538   
         C55       1.0000    0.61370   0.74300   0.61370   Biso      1.000     C          -0.018618           
         C56       1.0000    0.25700   0.38630   0.97040   Biso      1.000     C          -0.021948           
         C57       1.0000    0.16238   0.43020   0.97722   Biso      1.000     C          0.606359  
         C58       1.0000    0.97040   0.25700   0.38630   Biso      1.000     C          -0.021955000000000002         
         C59       1.0000    0.38630   0.38630   0.97040   Biso      1.000     C          -0.021953999999999998         
         C60       1.0000    0.43020   0.43020   0.97722   Biso      1.000     C          0.6063529999999999  
         C61       1.0000    0.38630   0.38630   0.25700   Biso      1.000     C          -0.021858000000000002         
         C62       1.0000    0.43020   0.43020   0.16238   Biso      1.000     C          0.606394  
         C63       1.0000    0.25700   0.97040   0.38630   Biso      1.000     C          -0.021866999999999998         
         C64       1.0000    0.16238   0.97722   0.43020   Biso      1.000     C          0.60641   
         C65       1.0000    0.61370   0.02960   0.61370   Biso      1.000     C          -0.018624           
         C66       1.0000    0.56980   0.02278   0.56980   Biso      1.000     C          0.6053810000000001  
         C67       1.0000    0.02960   0.61370   0.74300   Biso      1.000     C          -0.021943999999999998         
         C68       1.0000    0.02278   0.56980   0.83762   Biso      1.000     C          0.606349  
         C69       1.0000    0.74300   0.61370   0.02960   Biso      1.000     C          -0.021897           
         C70       1.0000    0.83762   0.56980   0.02278   Biso      1.000     C          0.606355  
         C71       1.0000    0.38630   0.25700   0.38630   Biso      1.000     C          -0.018637           
         C72       1.0000    0.43020   0.16238   0.43020   Biso      1.000     C          0.605406  
         Cu1       1.0000    0.00000   0.43000   0.57000   Biso      1.000     Cu          0.8788790000000001  
         Cu2       1.0000    0.00000   0.43000   0.00000   Biso      1.000     Cu          0.8852030000000001  
         Cu3       1.0000    0.00000   0.00000   0.57000   Biso      1.000     Cu          0.885395  
         Cu4       1.0000    0.57000   0.43000   0.00000   Biso      1.000     Cu          0.885265  
         Cu5       1.0000    0.43000   0.57000   0.00000   Biso      1.000     Cu          0.885342  
         Cu6       1.0000    0.57000   0.00000   0.43000   Biso      1.000     Cu          0.879129  
         Cu7       1.0000    0.43000   0.00000   0.57000   Biso      1.000     Cu          0.879129  
         Cu8       1.0000    0.00000   0.00000   0.43000   Biso      1.000     Cu          0.8855200000000001  
         Cu9       1.0000    0.00000   0.57000   0.43000   Biso      1.000     Cu          0.879152  
         Cu10      1.0000    0.57000   0.00000   0.00000   Biso      1.000     Cu          0.8791059999999999  
         Cu11      1.0000    0.43000   0.00000   0.00000   Biso      1.000     Cu          0.8787159999999999  
         Cu12      1.0000    0.00000   0.57000   0.00000   Biso      1.000     Cu          0.8854200000000001  
         H1        1.0000    0.97180   0.48740   0.27040   Biso      1.000     H          0.135356  
         H2        1.0000    0.02820   0.72960   0.51260   Biso      1.000     H          0.13535999999999998           
         H3        1.0000    0.97180   0.27040   0.48740   Biso      1.000     H          0.135356  
         H4        1.0000    0.27040   0.97180   0.27040   Biso      1.000     H          0.13536600000000001           
         H5        1.0000    0.48740   0.27040   0.97180   Biso      1.000     H          0.135351  
         H6        1.0000    0.27040   0.48740   0.27040   Biso      1.000     H          0.135365  
         H7        1.0000    0.27040   0.27040   0.48740   Biso      1.000     H          0.13558599999999998           
         H8        1.0000    0.72960   0.51260   0.72960   Biso      1.000     H          0.13538699999999998           
         H9        1.0000    0.27040   0.27040   0.97180   Biso      1.000     H          0.135349  
         H10       1.0000    0.51260   0.72960   0.02820   Biso      1.000     H          0.135374  
         H11       1.0000    0.48740   0.97180   0.27040   Biso      1.000     H          0.13558399999999998           
         H12       1.0000    0.72960   0.02820   0.72960   Biso      1.000     H          0.13538499999999998           
         H13       1.0000    0.72960   0.72960   0.02820   Biso      1.000     H          0.13536700000000002           
         H14       1.0000    0.72960   0.72960   0.51260   Biso      1.000     H          0.1356    
         H15       1.0000    0.51260   0.02820   0.72960   Biso      1.000     H          0.135602  
         H16       1.0000    0.51260   0.72960   0.72960   Biso      1.000     H          0.135391  
         H17       1.0000    0.02820   0.51260   0.72960   Biso      1.000     H          0.135353  
         H18       1.0000    0.02820   0.72960   0.72960   Biso      1.000     H          0.135149  
         H19       1.0000    0.72960   0.02820   0.51260   Biso      1.000     H          0.13538699999999998           
         H20       1.0000    0.97180   0.27040   0.27040   Biso      1.000     H          0.13515   
         H21       1.0000    0.27040   0.97180   0.48740   Biso      1.000     H          0.13536700000000002           
         H22       1.0000    0.48740   0.27040   0.27040   Biso      1.000     H          0.13537000000000002           
         H23       1.0000    0.72960   0.51260   0.02820   Biso      1.000     H          0.135152  
         H24       1.0000    0.27040   0.48740   0.97180   Biso      1.000     H          0.13513599999999998           
         O1        1.0000    0.61260   0.02004   0.87420   Biso      1.000     O          -0.532748           
         O2        1.0000    0.02004   0.87420   0.61260   Biso      1.000     O          -0.532565           
         O3        1.0000    0.87420   0.61260   0.02004   Biso      1.000     O          -0.5324300000000001           
         O4        1.0000    0.49316   0.02004   0.61260   Biso      1.000     O          -0.532445           
         O5        1.0000    0.02004   0.49316   0.87420   Biso      1.000     O          -0.532576           
         O6        1.0000    0.87420   0.49316   0.61260   Biso      1.000     O          -0.532714           
         O7        1.0000    0.49316   0.87420   0.02004   Biso      1.000     O          -0.532569           
         O8        1.0000    0.61260   0.49316   0.02004   Biso      1.000     O          -0.532571           
         O9        1.0000    0.61260   0.87420   0.49316   Biso      1.000     O          -0.532452           
         O10       1.0000    0.49316   0.61260   0.87420   Biso      1.000     O          -0.53242  
         O11       1.0000    0.12580   0.38740   0.50684   Biso      1.000     O          -0.53256  
         O12       1.0000    0.38740   0.97996   0.50684   Biso      1.000     O          -0.532756           
         O13       1.0000    0.97996   0.38740   0.12580   Biso      1.000     O          -0.532578           
         O14       1.0000    0.12580   0.50684   0.97996   Biso      1.000     O          -0.532705           
         O15       1.0000    0.50684   0.12580   0.38740   Biso      1.000     O          -0.532755           
         O16       1.0000    0.50684   0.97996   0.12580   Biso      1.000     O          -0.532591           
         O17       1.0000    0.97996   0.50684   0.38740   Biso      1.000     O          -0.532673           
         O18       1.0000    0.38740   0.12580   0.97996   Biso      1.000     O          -0.53275  
         O19       1.0000    0.12580   0.97996   0.38740   Biso      1.000     O          -0.532576           
         O20       1.0000    0.50684   0.38740   0.97996   Biso      1.000     O          -0.5324270000000001           
         O21       1.0000    0.02004   0.61260   0.49316   Biso      1.000     O          -0.532675           
         O22       1.0000    0.87420   0.02004   0.49316   Biso      1.000     O          -0.532428           
         O23       1.0000    0.02004   0.87420   0.49316   Biso      1.000     O          -0.53251  
         O24       1.0000    0.50684   0.97996   0.38740   Biso      1.000     O          -0.532547           
         O25       1.0000    0.49316   0.61260   0.02004   Biso      1.000     O          -0.532388           
         O26       1.0000    0.38740   0.50684   0.12580   Biso      1.000     O          -0.532573           
         O27       1.0000    0.97996   0.38740   0.50684   Biso      1.000     O          -0.532623           
         O28       1.0000    0.38740   0.97996   0.12580   Biso      1.000     O          -0.532794           
         O29       1.0000    0.50684   0.12580   0.97996   Biso      1.000     O          -0.532755           
         O30       1.0000    0.12580   0.50684   0.38740   Biso      1.000     O          -0.5327770000000001           
         O31       1.0000    0.97996   0.50684   0.12580   Biso      1.000     O          -0.5325350000000001           
         O32       1.0000    0.38740   0.12580   0.50684   Biso      1.000     O          -0.532547           
         O33       1.0000    0.12580   0.38740   0.97996   Biso      1.000     O          -0.532459           
         O34       1.0000    0.97996   0.12580   0.38740   Biso      1.000     O          -0.532666           
         O35       1.0000    0.38740   0.50684   0.97996   Biso      1.000     O          -0.532674           
         O36       1.0000    0.50684   0.38740   0.12580   Biso      1.000     O          -0.532562           
         O37       1.0000    0.12580   0.97996   0.50684   Biso      1.000     O          -0.532571           
         O38       1.0000    0.61260   0.02004   0.49316   Biso      1.000     O          -0.532706           
         O39       1.0000    0.02004   0.61260   0.87420   Biso      1.000     O          -0.532699           
         O40       1.0000    0.87420   0.49316   0.02004   Biso      1.000     O          -0.5325979999999999           
         O41       1.0000    0.49316   0.87420   0.61260   Biso      1.000     O          -0.532701           
         O42       1.0000    0.49316   0.02004   0.87420   Biso      1.000     O          -0.532478           
         O43       1.0000    0.87420   0.61260   0.49316   Biso      1.000     O          -0.53247  
         O44       1.0000    0.02004   0.49316   0.61260   Biso      1.000     O          -0.532626           
         O45       1.0000    0.61260   0.87420   0.02004   Biso      1.000     O          -0.532586           
         O46       1.0000    0.87420   0.02004   0.61260   Biso      1.000     O          -0.532429           
         O47       1.0000    0.61260   0.49316   0.87420   Biso      1.000     O          -0.532415           
         O48       1.0000    0.97996   0.12580   0.50684   Biso      1.000     O          -0.532551 