
##########################################################################
#               Crystallographic Information Format file
#               Produced by PyCifRW module
#
#  This is a CIF file.  CIF has been adopted by the International
#  Union of Crystallography as the standard for data archiving and
#  transmission.
#
#  For information on this file format, follow the CIF links at
#  http://www.iucr.org
##########################################################################

data_image0

_cell_length_a                          18.5661
_cell_length_b                          18.5661
_cell_length_c                          18.5661
_cell_angle_alpha                       60
_cell_angle_beta                        60
_cell_angle_gamma                       60
_symmetry_space_group_name_H-M          'P 1'
_symmetry_int_tables_number             1
loop_
  _symmetry_equiv_pos_as_xyz
         'x, y, z' 
loop_
  _atom_site_label
  _atom_site_occupancy
  _atom_site_fract_x
  _atom_site_fract_y
  _atom_site_fract_z
  _atom_site_thermal_displace_type
  _atom_site_B_iso_or_equiv
  _atom_site_type_symbol
  _atom_site_charge
         C1        1.0000    0.97860   0.16220   0.42960   Biso      1.000     C          0.608105  
         C2        1.0000    0.57120   0.69960   0.69960   Biso      1.000     C          -0.093775           
         C3        1.0000    0.69960   0.57120   0.02960   Biso      1.000     C          -0.093775           
         C4        1.0000    0.02960   0.69960   0.69960   Biso      1.000     C          -0.094307           
         C5        1.0000    0.69960   0.02960   0.57120   Biso      1.000     C          -0.094288           
         C6        1.0000    0.30040   0.97040   0.42880   Biso      1.000     C          -0.094295           
         C7        1.0000    0.42880   0.30040   0.30040   Biso      1.000     C          -0.09379  
         C8        1.0000    0.57120   0.02960   0.69960   Biso      1.000     C          -0.094324           
         C9        1.0000    0.30040   0.42880   0.97040   Biso      1.000     C          -0.093792           
         C10       1.0000    0.30040   0.30040   0.97040   Biso      1.000     C          -0.09435199999999999          
         C11       1.0000    0.42880   0.97040   0.30040   Biso      1.000     C          -0.094303           
         C12       1.0000    0.30040   0.30040   0.42880   Biso      1.000     C          -0.094317           
         C13       1.0000    0.97040   0.42880   0.30040   Biso      1.000     C          -0.094289           
         C14       1.0000    0.30040   0.42880   0.30040   Biso      1.000     C          -0.09376699999999999          
         C15       1.0000    0.42880   0.30040   0.97040   Biso      1.000     C          -0.093788           
         C16       1.0000    0.97040   0.30040   0.30040   Biso      1.000     C          -0.094312           
         C17       1.0000    0.30040   0.97040   0.30040   Biso      1.000     C          -0.09431  
         C18       1.0000    0.69960   0.69960   0.57120   Biso      1.000     C          -0.094317           
         C19       1.0000    0.69960   0.69960   0.02960   Biso      1.000     C          -0.094322           
         C20       1.0000    0.97860   0.42960   0.16220   Biso      1.000     C          0.608097  
         C21       1.0000    0.96852   0.38700   0.25748   Biso      1.000     C          -0.022096           
         C22       1.0000    0.16220   0.42960   0.42960   Biso      1.000     C          0.608025  
         C23       1.0000    0.25748   0.38700   0.38700   Biso      1.000     C          -0.022208000000000002         
         C24       1.0000    0.42960   0.16220   0.97860   Biso      1.000     C          0.608066  
         C25       1.0000    0.38700   0.25748   0.96852   Biso      1.000     C          -0.022216           
         C26       1.0000    0.02960   0.57120   0.69960   Biso      1.000     C          -0.094292           
         C27       1.0000    0.42960   0.97860   0.16220   Biso      1.000     C          0.608097  
         C28       1.0000    0.97860   0.42960   0.42960   Biso      1.000     C          0.608092  
         C29       1.0000    0.96852   0.38700   0.38700   Biso      1.000     C          -0.022108000000000003         
         C30       1.0000    0.02960   0.69960   0.57120   Biso      1.000     C          -0.094313           
         C31       1.0000    0.69960   0.57120   0.69960   Biso      1.000     C          -0.09378600000000001          
         C32       1.0000    0.57120   0.69960   0.02960   Biso      1.000     C          -0.09378099999999999          
         C33       1.0000    0.69960   0.02960   0.69960   Biso      1.000     C          -0.094301           
         C34       1.0000    0.38700   0.96852   0.25748   Biso      1.000     C          -0.022085           
         C35       1.0000    0.97040   0.30040   0.42880   Biso      1.000     C          -0.094304           
         C36       1.0000    0.38700   0.96852   0.38700   Biso      1.000     C          -0.022106           
         C37       1.0000    0.42960   0.97860   0.42960   Biso      1.000     C          0.6081    
         C38       1.0000    0.74252   0.61300   0.61300   Biso      1.000     C          -0.022194           
         C39       1.0000    0.83780   0.57040   0.57040   Biso      1.000     C          0.608062  
         C40       1.0000    0.03148   0.61300   0.61300   Biso      1.000     C          -0.022105           
         C41       1.0000    0.02140   0.57040   0.57040   Biso      1.000     C          0.608092  
         C42       1.0000    0.61300   0.74252   0.03148   Biso      1.000     C          -0.022195           
         C43       1.0000    0.57040   0.83780   0.02140   Biso      1.000     C          0.608043  
         C44       1.0000    0.57040   0.02140   0.83780   Biso      1.000     C          0.6080939999999999  
         C45       1.0000    0.74252   0.03148   0.61300   Biso      1.000     C          -0.022112           
         C46       1.0000    0.61300   0.61300   0.03148   Biso      1.000     C          -0.025439           
         C47       1.0000    0.57040   0.57040   0.02140   Biso      1.000     C          0.6090369999999999  
         C48       1.0000    0.61300   0.61300   0.74252   Biso      1.000     C          -0.025448           
         C49       1.0000    0.57040   0.57040   0.83780   Biso      1.000     C          0.6090369999999999  
         C50       1.0000    0.03148   0.74252   0.61300   Biso      1.000     C          -0.022113           
         C51       1.0000    0.02140   0.83780   0.57040   Biso      1.000     C          0.608106  
         C52       1.0000    0.83780   0.02140   0.57040   Biso      1.000     C          0.6081    
         C53       1.0000    0.61300   0.03148   0.74252   Biso      1.000     C          -0.022083000000000002         
         C54       1.0000    0.57040   0.83780   0.57040   Biso      1.000     C          0.608033  
         C55       1.0000    0.61300   0.74252   0.61300   Biso      1.000     C          -0.022213999999999998         
         C56       1.0000    0.25748   0.38700   0.96852   Biso      1.000     C          -0.022218           
         C57       1.0000    0.16220   0.42960   0.97860   Biso      1.000     C          0.608071  
         C58       1.0000    0.96852   0.25748   0.38700   Biso      1.000     C          -0.022113999999999998         
         C59       1.0000    0.38700   0.38700   0.96852   Biso      1.000     C          -0.025498           
         C60       1.0000    0.42960   0.42960   0.97860   Biso      1.000     C          0.609057  
         C61       1.0000    0.38700   0.38700   0.25748   Biso      1.000     C          -0.025449           
         C62       1.0000    0.42960   0.42960   0.16220   Biso      1.000     C          0.6090409999999999  
         C63       1.0000    0.25748   0.96852   0.38700   Biso      1.000     C          -0.022111000000000002         
         C64       1.0000    0.16220   0.97860   0.42960   Biso      1.000     C          0.6081    
         C65       1.0000    0.61300   0.03148   0.61300   Biso      1.000     C          -0.022104           
         C66       1.0000    0.57040   0.02140   0.57040   Biso      1.000     C          0.608099  
         C67       1.0000    0.03148   0.61300   0.74252   Biso      1.000     C          -0.022094           
         C68       1.0000    0.02140   0.57040   0.83780   Biso      1.000     C          0.6080949999999999  
         C69       1.0000    0.74252   0.61300   0.03148   Biso      1.000     C          -0.022197           
         C70       1.0000    0.83780   0.57040   0.02140   Biso      1.000     C          0.608047  
         C71       1.0000    0.38700   0.25748   0.38700   Biso      1.000     C          -0.022199           
         C72       1.0000    0.42960   0.16220   0.42960   Biso      1.000     C          0.608071  
         Cu1       1.0000    0.00000   0.43010   0.56990   Biso      1.000     Cu          0.8723360000000001  
         Cu2       1.0000    0.00000   0.43010   0.00000   Biso      1.000     Cu          0.8727379999999999  
         Cu3       1.0000    0.00000   0.00000   0.56990   Biso      1.000     Cu          0.8727309999999999  
         Cu4       1.0000    0.56990   0.43010   0.00000   Biso      1.000     Cu          0.878999  
         Cu5       1.0000    0.43010   0.56990   0.00000   Biso      1.000     Cu          0.8792260000000001  
         Cu6       1.0000    0.56990   0.00000   0.43010   Biso      1.000     Cu          0.872396  
         Cu7       1.0000    0.43010   0.00000   0.56990   Biso      1.000     Cu          0.872693  
         Cu8       1.0000    0.00000   0.00000   0.43010   Biso      1.000     Cu          0.872697  
         Cu9       1.0000    0.00000   0.56990   0.43010   Biso      1.000     Cu          0.872664  
         Cu10      1.0000    0.56990   0.00000   0.00000   Biso      1.000     Cu          0.8723989999999999  
         Cu11      1.0000    0.43010   0.00000   0.00000   Biso      1.000     Cu          0.872743  
         Cu12      1.0000    0.00000   0.56990   0.00000   Biso      1.000     Cu          0.872381  
         H1        1.0000    0.97220   0.48700   0.27040   Biso      1.000     H          0.133913  
         H2        1.0000    0.02780   0.72960   0.51300   Biso      1.000     H          0.13392300000000001           
         H3        1.0000    0.97220   0.27040   0.48700   Biso      1.000     H          0.133924  
         H4        1.0000    0.27040   0.97220   0.27040   Biso      1.000     H          0.13392300000000001           
         H5        1.0000    0.48700   0.27040   0.97220   Biso      1.000     H          0.133674  
         H6        1.0000    0.27040   0.48700   0.27040   Biso      1.000     H          0.133693  
         H7        1.0000    0.27040   0.27040   0.48700   Biso      1.000     H          0.1339    
         H8        1.0000    0.72960   0.51300   0.72960   Biso      1.000     H          0.133688  
         H9        1.0000    0.27040   0.27040   0.97220   Biso      1.000     H          0.133893  
         H10       1.0000    0.51300   0.72960   0.02780   Biso      1.000     H          0.133691  
         H11       1.0000    0.48700   0.97220   0.27040   Biso      1.000     H          0.13393   
         H12       1.0000    0.72960   0.02780   0.72960   Biso      1.000     H          0.133928  
         H13       1.0000    0.72960   0.72960   0.02780   Biso      1.000     H          0.133913  
         H14       1.0000    0.72960   0.72960   0.51300   Biso      1.000     H          0.133901  
         H15       1.0000    0.51300   0.02780   0.72960   Biso      1.000     H          0.133924  
         H16       1.0000    0.51300   0.72960   0.72960   Biso      1.000     H          0.133696  
         H17       1.0000    0.02780   0.51300   0.72960   Biso      1.000     H          0.133915  
         H18       1.0000    0.02780   0.72960   0.72960   Biso      1.000     H          0.133928  
         H19       1.0000    0.72960   0.02780   0.51300   Biso      1.000     H          0.133917  
         H20       1.0000    0.97220   0.27040   0.27040   Biso      1.000     H          0.133926  
         H21       1.0000    0.27040   0.97220   0.48700   Biso      1.000     H          0.133918  
         H22       1.0000    0.48700   0.27040   0.27040   Biso      1.000     H          0.133692  
         H23       1.0000    0.72960   0.51300   0.02780   Biso      1.000     H          0.133696  
         H24       1.0000    0.27040   0.48700   0.97220   Biso      1.000     H          0.133674  
         O1        1.0000    0.61286   0.02002   0.87376   Biso      1.000     O          -0.531069           
         O2        1.0000    0.02002   0.87376   0.61286   Biso      1.000     O          -0.53104  
         O3        1.0000    0.87376   0.61286   0.02002   Biso      1.000     O          -0.5309149999999999           
         O4        1.0000    0.49336   0.02002   0.61286   Biso      1.000     O          -0.530983           
         O5        1.0000    0.02002   0.49336   0.87376   Biso      1.000     O          -0.53109  
         O6        1.0000    0.87376   0.49336   0.61286   Biso      1.000     O          -0.531143           
         O7        1.0000    0.49336   0.87376   0.02002   Biso      1.000     O          -0.531179           
         O8        1.0000    0.61286   0.49336   0.02002   Biso      1.000     O          -0.53094  
         O9        1.0000    0.61286   0.87376   0.49336   Biso      1.000     O          -0.530914           
         O10       1.0000    0.49336   0.61286   0.87376   Biso      1.000     O          -0.531058           
         O11       1.0000    0.12624   0.38714   0.50664   Biso      1.000     O          -0.530921           
         O12       1.0000    0.38714   0.97998   0.50664   Biso      1.000     O          -0.531084           
         O13       1.0000    0.97998   0.38714   0.12624   Biso      1.000     O          -0.530984           
         O14       1.0000    0.12624   0.50664   0.97998   Biso      1.000     O          -0.531233           
         O15       1.0000    0.50664   0.12624   0.38714   Biso      1.000     O          -0.53114  
         O16       1.0000    0.50664   0.97998   0.12624   Biso      1.000     O          -0.531067           
         O17       1.0000    0.97998   0.50664   0.38714   Biso      1.000     O          -0.53109  
         O18       1.0000    0.38714   0.12624   0.97998   Biso      1.000     O          -0.5310199999999999           
         O19       1.0000    0.12624   0.97998   0.38714   Biso      1.000     O          -0.5309470000000001           
         O20       1.0000    0.50664   0.38714   0.97998   Biso      1.000     O          -0.531089           
         O21       1.0000    0.02002   0.61286   0.49336   Biso      1.000     O          -0.530982           
         O22       1.0000    0.87376   0.02002   0.49336   Biso      1.000     O          -0.5310560000000001           
         O23       1.0000    0.02002   0.87376   0.49336   Biso      1.000     O          -0.531045           
         O24       1.0000    0.50664   0.97998   0.38714   Biso      1.000     O          -0.530967           
         O25       1.0000    0.49336   0.61286   0.02002   Biso      1.000     O          -0.530954           
         O26       1.0000    0.38714   0.50664   0.12624   Biso      1.000     O          -0.531053           
         O27       1.0000    0.97998   0.38714   0.50664   Biso      1.000     O          -0.530971           
         O28       1.0000    0.38714   0.97998   0.12624   Biso      1.000     O          -0.5310699999999999           
         O29       1.0000    0.50664   0.12624   0.97998   Biso      1.000     O          -0.531229           
         O30       1.0000    0.12624   0.50664   0.38714   Biso      1.000     O          -0.531077           
         O31       1.0000    0.97998   0.50664   0.12624   Biso      1.000     O          -0.531085           
         O32       1.0000    0.38714   0.12624   0.50664   Biso      1.000     O          -0.531037           
         O33       1.0000    0.12624   0.38714   0.97998   Biso      1.000     O          -0.531029           
         O34       1.0000    0.97998   0.12624   0.38714   Biso      1.000     O          -0.531047           
         O35       1.0000    0.38714   0.50664   0.97998   Biso      1.000     O          -0.5311   
         O36       1.0000    0.50664   0.38714   0.12624   Biso      1.000     O          -0.530989           
         O37       1.0000    0.12624   0.97998   0.50664   Biso      1.000     O          -0.531051           
         O38       1.0000    0.61286   0.02002   0.49336   Biso      1.000     O          -0.531079           
         O39       1.0000    0.02002   0.61286   0.87376   Biso      1.000     O          -0.5309729999999999           
         O40       1.0000    0.87376   0.49336   0.02002   Biso      1.000     O          -0.5311819999999999           
         O41       1.0000    0.49336   0.87376   0.61286   Biso      1.000     O          -0.531079           
         O42       1.0000    0.49336   0.02002   0.87376   Biso      1.000     O          -0.531077           
         O43       1.0000    0.87376   0.61286   0.49336   Biso      1.000     O          -0.531045           
         O44       1.0000    0.02002   0.49336   0.61286   Biso      1.000     O          -0.531086           
         O45       1.0000    0.61286   0.87376   0.02002   Biso      1.000     O          -0.530911           
         O46       1.0000    0.87376   0.02002   0.61286   Biso      1.000     O          -0.530939           
         O47       1.0000    0.61286   0.49336   0.87376   Biso      1.000     O          -0.530985           
         O48       1.0000    0.97998   0.12624   0.50664   Biso      1.000     O          -0.531037 