
##########################################################################
#               Crystallographic Information Format file
#               Produced by PyCifRW module
#
#  This is a CIF file.  CIF has been adopted by the International
#  Union of Crystallography as the standard for data archiving and
#  transmission.
#
#  For information on this file format, follow the CIF links at
#  http://www.iucr.org
##########################################################################

data_image0

_cell_length_a                          18.6026
_cell_length_b                          18.6026
_cell_length_c                          18.6026
_cell_angle_alpha                       60
_cell_angle_beta                        60
_cell_angle_gamma                       60
_symmetry_space_group_name_H-M          'P 1'
_symmetry_int_tables_number             1
loop_
  _symmetry_equiv_pos_as_xyz
         'x, y, z' 
loop_
  _atom_site_label
  _atom_site_occupancy
  _atom_site_fract_x
  _atom_site_fract_y
  _atom_site_fract_z
  _atom_site_thermal_displace_type
  _atom_site_B_iso_or_equiv
  _atom_site_type_symbol
  _atom_site_charge
         C1        1.0000    0.97786   0.16194   0.43010   Biso      1.000     C          0.599705  
         C2        1.0000    0.57118   0.70000   0.70000   Biso      1.000     C          -0.099873           
         C3        1.0000    0.70000   0.57118   0.02882   Biso      1.000     C          -0.100389           
         C4        1.0000    0.02882   0.70000   0.70000   Biso      1.000     C          -0.100383           
         C5        1.0000    0.70000   0.02882   0.57118   Biso      1.000     C          -0.099872           
         C6        1.0000    0.30000   0.97118   0.42882   Biso      1.000     C          -0.099885           
         C7        1.0000    0.42882   0.30000   0.30000   Biso      1.000     C          -0.099867           
         C8        1.0000    0.57118   0.02882   0.70000   Biso      1.000     C          -0.09988  
         C9        1.0000    0.30000   0.42882   0.97118   Biso      1.000     C          -0.100366           
         C10       1.0000    0.30000   0.30000   0.97118   Biso      1.000     C          -0.100327           
         C11       1.0000    0.42882   0.97118   0.30000   Biso      1.000     C          -0.099872           
         C12       1.0000    0.30000   0.30000   0.42882   Biso      1.000     C          -0.099844           
         C13       1.0000    0.97118   0.42882   0.30000   Biso      1.000     C          -0.100372           
         C14       1.0000    0.30000   0.42882   0.30000   Biso      1.000     C          -0.100403           
         C15       1.0000    0.42882   0.30000   0.97118   Biso      1.000     C          -0.100332           
         C16       1.0000    0.97118   0.30000   0.30000   Biso      1.000     C          -0.100403           
         C17       1.0000    0.30000   0.97118   0.30000   Biso      1.000     C          -0.10042  
         C18       1.0000    0.70000   0.70000   0.57118   Biso      1.000     C          -0.099834           
         C19       1.0000    0.70000   0.70000   0.02882   Biso      1.000     C          -0.100334           
         C20       1.0000    0.97786   0.43010   0.16194   Biso      1.000     C          0.599733  
         C21       1.0000    0.97048   0.38600   0.25752   Biso      1.000     C          -0.015077           
         C22       1.0000    0.16194   0.43010   0.43010   Biso      1.000     C          0.599642  
         C23       1.0000    0.25752   0.38600   0.38600   Biso      1.000     C          -0.015111           
         C24       1.0000    0.43010   0.16194   0.97786   Biso      1.000     C          0.599674  
         C25       1.0000    0.38600   0.25752   0.97048   Biso      1.000     C          -0.01496  
         C26       1.0000    0.02882   0.57118   0.70000   Biso      1.000     C          -0.100358           
         C27       1.0000    0.43010   0.97786   0.16194   Biso      1.000     C          0.599605  
         C28       1.0000    0.97786   0.43010   0.43010   Biso      1.000     C          0.599674  
         C29       1.0000    0.97048   0.38600   0.38600   Biso      1.000     C          -0.014986           
         C30       1.0000    0.02882   0.70000   0.57118   Biso      1.000     C          -0.100339           
         C31       1.0000    0.70000   0.57118   0.70000   Biso      1.000     C          -0.100414           
         C32       1.0000    0.57118   0.70000   0.02882   Biso      1.000     C          -0.100314           
         C33       1.0000    0.70000   0.02882   0.70000   Biso      1.000     C          -0.100427           
         C34       1.0000    0.38600   0.97048   0.25752   Biso      1.000     C          -0.015158           
         C35       1.0000    0.97118   0.30000   0.42882   Biso      1.000     C          -0.100338           
         C36       1.0000    0.38600   0.97048   0.38600   Biso      1.000     C          -0.018449           
         C37       1.0000    0.43010   0.97786   0.43010   Biso      1.000     C          0.600726  
         C38       1.0000    0.74248   0.61400   0.61400   Biso      1.000     C          -0.015129           
         C39       1.0000    0.83806   0.56990   0.56990   Biso      1.000     C          0.599605  
         C40       1.0000    0.02952   0.61400   0.61400   Biso      1.000     C          -0.014977           
         C41       1.0000    0.02214   0.56990   0.56990   Biso      1.000     C          0.599677  
         C42       1.0000    0.61400   0.74248   0.02952   Biso      1.000     C          -0.014963           
         C43       1.0000    0.56990   0.83806   0.02214   Biso      1.000     C          0.599674  
         C44       1.0000    0.56990   0.02214   0.83806   Biso      1.000     C          0.599646  
         C45       1.0000    0.74248   0.02952   0.61400   Biso      1.000     C          -0.015152           
         C46       1.0000    0.61400   0.61400   0.02952   Biso      1.000     C          -0.014974           
         C47       1.0000    0.56990   0.56990   0.02214   Biso      1.000     C          0.599714  
         C48       1.0000    0.61400   0.61400   0.74248   Biso      1.000     C          -0.015141           
         C49       1.0000    0.56990   0.56990   0.83806   Biso      1.000     C          0.59968   
         C50       1.0000    0.02952   0.74248   0.61400   Biso      1.000     C          -0.014978           
         C51       1.0000    0.02214   0.83806   0.56990   Biso      1.000     C          0.599707  
         C52       1.0000    0.83806   0.02214   0.56990   Biso      1.000     C          0.599632  
         C53       1.0000    0.61400   0.02952   0.74248   Biso      1.000     C          -0.015142           
         C54       1.0000    0.56990   0.83806   0.56990   Biso      1.000     C          0.600725  
         C55       1.0000    0.61400   0.74248   0.61400   Biso      1.000     C          -0.018427           
         C56       1.0000    0.25752   0.38600   0.97048   Biso      1.000     C          -0.015039           
         C57       1.0000    0.16194   0.43010   0.97786   Biso      1.000     C          0.599732  
         C58       1.0000    0.97048   0.25752   0.38600   Biso      1.000     C          -0.014984           
         C59       1.0000    0.38600   0.38600   0.97048   Biso      1.000     C          -0.014978           
         C60       1.0000    0.43010   0.43010   0.97786   Biso      1.000     C          0.599712  
         C61       1.0000    0.38600   0.38600   0.25752   Biso      1.000     C          -0.015155           
         C62       1.0000    0.43010   0.43010   0.16194   Biso      1.000     C          0.599638  
         C63       1.0000    0.25752   0.97048   0.38600   Biso      1.000     C          -0.015138           
         C64       1.0000    0.16194   0.97786   0.43010   Biso      1.000     C          0.59967   
         C65       1.0000    0.61400   0.02952   0.61400   Biso      1.000     C          -0.01845  
         C66       1.0000    0.56990   0.02214   0.56990   Biso      1.000     C          0.600728  
         C67       1.0000    0.02952   0.61400   0.74248   Biso      1.000     C          -0.015067           
         C68       1.0000    0.02214   0.56990   0.83806   Biso      1.000     C          0.599733  
         C69       1.0000    0.74248   0.61400   0.02952   Biso      1.000     C          -0.015039           
         C70       1.0000    0.83806   0.56990   0.02214   Biso      1.000     C          0.59973   
         C71       1.0000    0.38600   0.25752   0.38600   Biso      1.000     C          -0.018424           
         C72       1.0000    0.43010   0.16194   0.43010   Biso      1.000     C          0.600724  
         Cu1       1.0000    0.00000   0.42992   0.57008   Biso      1.000     Cu          0.878539  
         Cu2       1.0000    0.00000   0.42992   0.00000   Biso      1.000     Cu          0.879196  
         Cu3       1.0000    0.00000   0.00000   0.57008   Biso      1.000     Cu          0.87864   
         Cu4       1.0000    0.57008   0.42992   0.00000   Biso      1.000     Cu          0.879163  
         Cu5       1.0000    0.42992   0.57008   0.00000   Biso      1.000     Cu          0.878756  
         Cu6       1.0000    0.57008   0.00000   0.42992   Biso      1.000     Cu          0.885682  
         Cu7       1.0000    0.42992   0.00000   0.57008   Biso      1.000     Cu          0.885234  
         Cu8       1.0000    0.00000   0.00000   0.42992   Biso      1.000     Cu          0.878957  
         Cu9       1.0000    1.00000   0.57008   0.42992   Biso      1.000     Cu          0.878825  
         Cu10      1.0000    0.57008   0.00000   0.00000   Biso      1.000     Cu          0.878848  
         Cu11      1.0000    0.42992   0.00000   0.00000   Biso      1.000     Cu          0.878507  
         Cu12      1.0000    0.00000   0.57008   0.00000   Biso      1.000     Cu          0.879182  
         H1        1.0000    0.97280   0.48720   0.27000   Biso      1.000     H          0.13725   
         H2        1.0000    0.02720   0.73000   0.51280   Biso      1.000     H          0.13726   
         H3        1.0000    0.97280   0.27000   0.48720   Biso      1.000     H          0.137266  
         H4        1.0000    0.27000   0.97280   0.27000   Biso      1.000     H          0.137194  
         H5        1.0000    0.48720   0.27000   0.97280   Biso      1.000     H          0.137279  
         H6        1.0000    0.27000   0.48720   0.27000   Biso      1.000     H          0.137219  
         H7        1.0000    0.27000   0.27000   0.48720   Biso      1.000     H          0.136999  
         H8        1.0000    0.73000   0.51280   0.73000   Biso      1.000     H          0.137213  
         H9        1.0000    0.27000   0.27000   0.97280   Biso      1.000     H          0.137274  
         H10       1.0000    0.51280   0.73000   0.02720   Biso      1.000     H          0.137289  
         H11       1.0000    0.48720   0.97280   0.27000   Biso      1.000     H          0.136977  
         H12       1.0000    0.73000   0.02720   0.73000   Biso      1.000     H          0.137195  
         H13       1.0000    0.73000   0.73000   0.02720   Biso      1.000     H          0.137269  
         H14       1.0000    0.73000   0.73000   0.51280   Biso      1.000     H          0.136998  
         H15       1.0000    0.51280   0.02720   0.73000   Biso      1.000     H          0.13698   
         H16       1.0000    0.51280   0.73000   0.73000   Biso      1.000     H          0.137     
         H17       1.0000    0.02720   0.51280   0.73000   Biso      1.000     H          0.137254  
         H18       1.0000    0.02720   0.73000   0.73000   Biso      1.000     H          0.137263  
         H19       1.0000    0.73000   0.02720   0.51280   Biso      1.000     H          0.136979  
         H20       1.0000    0.97280   0.27000   0.27000   Biso      1.000     H          0.137259  
         H21       1.0000    0.27000   0.97280   0.48720   Biso      1.000     H          0.13698   
         H22       1.0000    0.48720   0.27000   0.27000   Biso      1.000     H          0.136997  
         H23       1.0000    0.73000   0.51280   0.02720   Biso      1.000     H          0.137281  
         H24       1.0000    0.27000   0.48720   0.97280   Biso      1.000     H          0.137287  
         O1        1.0000    0.61280   0.01988   0.87444   Biso      1.000     O          -0.53062  
         O2        1.0000    0.01988   0.87444   0.61280   Biso      1.000     O          -0.530628           
         O3        1.0000    0.87444   0.61280   0.01988   Biso      1.000     O          -0.530525           
         O4        1.0000    0.49288   0.01988   0.61280   Biso      1.000     O          -0.530596           
         O5        1.0000    0.01988   0.49288   0.87444   Biso      1.000     O          -0.530534           
         O6        1.0000    0.87444   0.49288   0.61280   Biso      1.000     O          -0.53052  
         O7        1.0000    0.49288   0.87444   0.01988   Biso      1.000     O          -0.530516           
         O8        1.0000    0.61280   0.49288   0.01988   Biso      1.000     O          -0.53059  
         O9        1.0000    0.61280   0.87444   0.49288   Biso      1.000     O          -0.530662           
         O10       1.0000    0.49288   0.61280   0.87444   Biso      1.000     O          -0.530669           
         O11       1.0000    0.12556   0.38720   0.50712   Biso      1.000     O          -0.530714           
         O12       1.0000    0.38720   0.98012   0.50712   Biso      1.000     O          -0.530594           
         O13       1.0000    0.98012   0.38720   0.12556   Biso      1.000     O          -0.530429           
         O14       1.0000    0.12556   0.50712   0.98012   Biso      1.000     O          -0.530432           
         O15       1.0000    0.50712   0.12556   0.38720   Biso      1.000     O          -0.530684           
         O16       1.0000    0.50712   0.98012   0.12556   Biso      1.000     O          -0.530654           
         O17       1.0000    0.98012   0.50712   0.38720   Biso      1.000     O          -0.530676           
         O18       1.0000    0.38720   0.12556   0.98012   Biso      1.000     O          -0.530634           
         O19       1.0000    0.12556   0.98012   0.38720   Biso      1.000     O          -0.530622           
         O20       1.0000    0.50712   0.38720   0.98012   Biso      1.000     O          -0.530572           
         O21       1.0000    0.01988   0.61280   0.49288   Biso      1.000     O          -0.530542           
         O22       1.0000    0.87444   0.01988   0.49288   Biso      1.000     O          -0.530651           
         O23       1.0000    0.01988   0.87444   0.49288   Biso      1.000     O          -0.530621           
         O24       1.0000    0.50712   0.98012   0.38720   Biso      1.000     O          -0.530678           
         O25       1.0000    0.49288   0.61280   0.01988   Biso      1.000     O          -0.53056  
         O26       1.0000    0.38720   0.50712   0.12556   Biso      1.000     O          -0.530454           
         O27       1.0000    0.98012   0.38720   0.50712   Biso      1.000     O          -0.53053  
         O28       1.0000    0.38720   0.98012   0.12556   Biso      1.000     O          -0.530497           
         O29       1.0000    0.50712   0.12556   0.98012   Biso      1.000     O          -0.530532           
         O30       1.0000    0.12556   0.50712   0.38720   Biso      1.000     O          -0.530642           
         O31       1.0000    0.98012   0.50712   0.12556   Biso      1.000     O          -0.530545           
         O32       1.0000    0.38720   0.12556   0.50712   Biso      1.000     O          -0.530581           
         O33       1.0000    0.12556   0.38720   0.98012   Biso      1.000     O          -0.530515           
         O34       1.0000    0.98012   0.12556   0.38720   Biso      1.000     O          -0.530646           
         O35       1.0000    0.38720   0.50712   0.98012   Biso      1.000     O          -0.530591           
         O36       1.0000    0.50712   0.38720   0.12556   Biso      1.000     O          -0.530603           
         O37       1.0000    0.12556   0.98012   0.50712   Biso      1.000     O          -0.530705           
         O38       1.0000    0.61280   0.01988   0.49288   Biso      1.000     O          -0.530675           
         O39       1.0000    0.01988   0.61280   0.87444   Biso      1.000     O          -0.530433           
         O40       1.0000    0.87444   0.49288   0.01988   Biso      1.000     O          -0.530429           
         O41       1.0000    0.49288   0.87444   0.61280   Biso      1.000     O          -0.530599           
         O42       1.0000    0.49288   0.01988   0.87444   Biso      1.000     O          -0.530713           
         O43       1.0000    0.87444   0.61280   0.49288   Biso      1.000     O          -0.530653           
         O44       1.0000    0.01988   0.49288   0.61280   Biso      1.000     O          -0.530666           
         O45       1.0000    0.61280   0.87444   0.01988   Biso      1.000     O          -0.53064  
         O46       1.0000    0.87444   0.01988   0.61280   Biso      1.000     O          -0.530491           
         O47       1.0000    0.61280   0.49288   0.87444   Biso      1.000     O          -0.530573           
         O48       1.0000    0.98012   0.12556   0.50712   Biso      1.000     O          -0.530601 