
##########################################################################
#               Crystallographic Information Format file
#               Produced by PyCifRW module
#
#  This is a CIF file.  CIF has been adopted by the International
#  Union of Crystallography as the standard for data archiving and
#  transmission.
#
#  For information on this file format, follow the CIF links at
#  http://www.iucr.org
##########################################################################

data_image0

_cell_length_a                          17.1168
_cell_length_b                          17.2215
_cell_length_c                          17.2215
_cell_angle_alpha                       90
_cell_angle_beta                        90
_cell_angle_gamma                       90
_symmetry_space_group_name_H-M          'P 1'
_symmetry_int_tables_number             1
loop_
  _symmetry_equiv_pos_as_xyz
         'x, y, z' 
loop_
  _atom_site_label
  _atom_site_occupancy
  _atom_site_fract_x
  _atom_site_fract_y
  _atom_site_fract_z
  _atom_site_thermal_displace_type
  _atom_site_B_iso_or_equiv
  _atom_site_type_symbol
  _atom_site_charge
         C1        1.0000    0.46760   0.54906   0.04906   Biso      1.000     C          0.20183800000000002           
         C2        1.0000    0.78590   0.95020   0.45020   Biso      1.000     C          -0.067223           
         C3        1.0000    0.70400   0.04900   0.54900   Biso      1.000     C          -0.135703           
         C4        1.0000    0.78590   0.04980   0.54980   Biso      1.000     C          -0.061015999999999994         
         C5        1.0000    0.15350   0.66780   0.55290   Biso      1.000     C          -0.08984099999999999          
         C6        1.0000    0.15430   0.58170   0.55060   Biso      1.000     C          -0.13158599999999998          
         C7        1.0000    0.11860   0.54420   0.49710   Biso      1.000     C          0.10293699999999999           
         C8        1.0000    0.08050   0.58390   0.44400   Biso      1.000     C          -0.111028           
         C9        1.0000    0.07870   0.66550   0.44500   Biso      1.000     C          -0.077239           
         C10       1.0000    0.11530   0.70450   0.49950   Biso      1.000     C          -0.033761           
         C11       1.0000    0.11730   0.79080   0.50050   Biso      1.000     C          0.620438  
         C12       1.0000    0.22910   0.41790   0.32660   Biso      1.000     C          -0.154054           
         C13       1.0000    0.15350   0.33220   0.44710   Biso      1.000     C          -0.197598           
         C14       1.0000    0.11860   0.45580   0.50290   Biso      1.000     C          -0.009177           
         C15       1.0000    0.08050   0.41610   0.55600   Biso      1.000     C          -0.10272200000000001          
         C16       1.0000    0.07870   0.33450   0.55500   Biso      1.000     C          -0.109472           
         C17       1.0000    0.11530   0.29550   0.50050   Biso      1.000     C          -0.008778           
         C18       1.0000    0.11730   0.20920   0.49950   Biso      1.000     C          0.6218239999999999  
         C19       1.0000    0.22910   0.82660   0.91790   Biso      1.000     C          -0.153395           
         C20       1.0000    0.15350   0.94710   0.83220   Biso      1.000     C          -0.198247           
         C21       1.0000    0.70400   0.95100   0.45100   Biso      1.000     C          -0.138511           
         C22       1.0000    0.53240   0.95094   0.54906   Biso      1.000     C          0.20483600000000002           
         C23       1.0000    0.45080   0.94980   0.55020   Biso      1.000     C          -0.23638299999999998          
         C24       1.0000    0.51890   0.85750   0.64250   Biso      1.000     C          -0.165055           
         C25       1.0000    0.54920   0.55020   0.05020   Biso      1.000     C          -0.233719           
         C26       1.0000    0.48110   0.64250   0.14250   Biso      1.000     C          -0.14818399999999998          
         C27       1.0000    0.46760   0.45094   0.95094   Biso      1.000     C          -0.11836500000000001          
         C28       1.0000    0.54920   0.44980   0.94980   Biso      1.000     C          -0.10785499999999999          
         C29       1.0000    0.09140   0.50000   0.00000   Biso      1.000     C          0.5118729999999999  
         C30       1.0000    0.17180   0.50000   0.00000   Biso      1.000     C          -0.016983           
         C31       1.0000    0.34020   0.50000   0.00000   Biso      1.000     C          0.11211099999999999           
         C32       1.0000    0.42150   0.50000   0.00000   Biso      1.000     C          -0.013878999999999999         
         C33       1.0000    0.58470   0.50000   0.00000   Biso      1.000     C          0.022930000000000002          
         C34       1.0000    0.15430   0.94940   0.91830   Biso      1.000     C          0.18998199999999998           
         C35       1.0000    0.67630   0.50000   0.00000   Biso      1.000     C          0.48411000000000004           
         C36       1.0000    0.88270   0.29080   0.99950   Biso      1.000     C          0.623052  
         C37       1.0000    0.32370   0.00000   0.50000   Biso      1.000     C          0.484025  
         C38       1.0000    0.41530   0.00000   0.50000   Biso      1.000     C          0.022905000000000002          
         C39       1.0000    0.57850   0.00000   0.50000   Biso      1.000     C          -0.016483           
         C40       1.0000    0.65980   0.00000   0.50000   Biso      1.000     C          0.11196600000000001           
         C41       1.0000    0.82820   0.00000   0.50000   Biso      1.000     C          -0.016835           
         C42       1.0000    0.90860   0.00000   0.50000   Biso      1.000     C          0.5118010000000001  
         C43       1.0000    0.45080   0.05020   0.44980   Biso      1.000     C          -0.11074400000000001          
         C44       1.0000    0.53240   0.04906   0.45094   Biso      1.000     C          -0.116376           
         C45       1.0000    0.29600   0.45100   0.04900   Biso      1.000     C          -0.137982           
         C46       1.0000    0.11860   0.00290   0.95580   Biso      1.000     C          0.008003  
         C47       1.0000    0.15430   0.41830   0.44940   Biso      1.000     C          0.189141  
         C48       1.0000    0.07870   0.05500   0.83450   Biso      1.000     C          -0.108896           
         C49       1.0000    0.84650   0.83220   0.05290   Biso      1.000     C          -0.198884           
         C50       1.0000    0.77090   0.91790   0.17340   Biso      1.000     C          -0.151063           
         C51       1.0000    0.88270   0.49950   0.79080   Biso      1.000     C          0.619889  
         C52       1.0000    0.88470   0.50050   0.70450   Biso      1.000     C          -0.034137           
         C53       1.0000    0.92130   0.55500   0.66550   Biso      1.000     C          -0.079192           
         C54       1.0000    0.91950   0.55600   0.58390   Biso      1.000     C          -0.11133499999999999          
         C55       1.0000    0.08050   0.05600   0.91610   Biso      1.000     C          -0.093418           
         C56       1.0000    0.84570   0.44940   0.58170   Biso      1.000     C          -0.132083           
         C57       1.0000    0.84650   0.44710   0.66780   Biso      1.000     C          -0.089863           
         C58       1.0000    0.84570   0.91830   0.05060   Biso      1.000     C          0.189582  
         C59       1.0000    0.88270   0.50050   0.20920   Biso      1.000     C          0.622383  
         C60       1.0000    0.92130   0.44500   0.33450   Biso      1.000     C          -0.106199           
         C61       1.0000    0.91950   0.44400   0.41610   Biso      1.000     C          -0.103591           
         C62       1.0000    0.88140   0.49710   0.45580   Biso      1.000     C          -0.008026           
         C63       1.0000    0.84570   0.55060   0.41830   Biso      1.000     C          0.188986  
         C64       1.0000    0.84650   0.55290   0.33220   Biso      1.000     C          -0.19754000000000002          
         C65       1.0000    0.77090   0.67340   0.41790   Biso      1.000     C          -0.15162799999999999          
         C66       1.0000    0.21410   0.54980   0.95020   Biso      1.000     C          -0.063205           
         C67       1.0000    0.29600   0.54900   0.95100   Biso      1.000     C          -0.135916           
         C68       1.0000    0.21410   0.45020   0.04980   Biso      1.000     C          -0.064916           
         C69       1.0000    0.88470   0.49950   0.29550   Biso      1.000     C          -0.008851000000000001         
         C70       1.0000    0.88140   0.95580   0.99710   Biso      1.000     C          0.008929000000000001          
         C71       1.0000    0.88140   0.50290   0.54420   Biso      1.000     C          0.10261300000000001           
         C72       1.0000    0.92130   0.83450   0.94500   Biso      1.000     C          -0.10690799999999999          
         C73       1.0000    0.11530   0.00050   0.79550   Biso      1.000     C          -0.008512           
         C74       1.0000    0.11730   0.99950   0.70920   Biso      1.000     C          0.622836  
         C75       1.0000    0.22910   0.17340   0.08210   Biso      1.000     C          -0.148066           
         C76       1.0000    0.15350   0.05290   0.16780   Biso      1.000     C          -0.198328           
         C77       1.0000    0.15430   0.05060   0.08170   Biso      1.000     C          0.190363  
         C78       1.0000    0.11860   0.99710   0.04420   Biso      1.000     C          0.009852  
         C79       1.0000    0.08050   0.94400   0.08390   Biso      1.000     C          -0.096064           
         C80       1.0000    0.07870   0.94500   0.16550   Biso      1.000     C          -0.10467699999999999          
         C81       1.0000    0.91950   0.91610   0.94400   Biso      1.000     C          -0.09392400000000001          
         C82       1.0000    0.11730   0.00050   0.29080   Biso      1.000     C          0.623311  
         C83       1.0000    0.11530   0.99950   0.20450   Biso      1.000     C          -0.011165999999999999         
         C84       1.0000    0.84650   0.16780   0.94710   Biso      1.000     C          -0.19703299999999999          
         C85       1.0000    0.77090   0.08210   0.82660   Biso      1.000     C          -0.151535           
         C86       1.0000    0.84570   0.08170   0.94940   Biso      1.000     C          0.18925699999999998           
         C87       1.0000    0.88140   0.04420   0.00290   Biso      1.000     C          0.008951  
         C88       1.0000    0.91950   0.08390   0.05600   Biso      1.000     C          -0.095726           
         C89       1.0000    0.88470   0.79550   0.99950   Biso      1.000     C          -0.009067           
         C90       1.0000    0.88470   0.20450   0.00050   Biso      1.000     C          -0.009522           
         C91       1.0000    0.92130   0.16550   0.05500   Biso      1.000     C          -0.106675           
         C92       1.0000    0.88270   0.70920   0.00050   Biso      1.000     C          0.6228779999999999  
         H1        1.0000    0.95495   0.39789   0.30219   Biso      1.000     H          0.100864  
         H2        1.0000    0.81397   0.60091   0.30007   Biso      1.000     H          0.106553  
         H3        1.0000    0.44719   0.68279   0.18279   Biso      1.000     H          0.107053  
         H4        1.0000    0.81456   0.39987   0.70162   Biso      1.000     H          0.096139  
         H5        1.0000    0.95154   0.60358   0.55068   Biso      1.000     H          0.088916  
         H6        1.0000    0.70597   0.66020   0.41134   Biso      1.000     H          0.078461  
         H7        1.0000    0.95495   0.60211   0.69781   Biso      1.000     H          0.09894700000000001           
         H8        1.0000    0.95154   0.39642   0.44932   Biso      1.000     H          0.094012  
         H9        1.0000    0.58135   0.40881   0.90881   Biso      1.000     H          0.131211  
         H10       1.0000    0.51943   0.60209   0.17852   Biso      1.000     H          0.086394  
         H11       1.0000    0.77857   0.94834   0.23169   Biso      1.000     H          0.100597  
         H12       1.0000    0.77857   0.73169   0.44834   Biso      1.000     H          0.10349100000000001           
         H13       1.0000    0.18160   0.59066   0.90934   Biso      1.000     H          0.116881  
         H14       1.0000    0.33010   0.58921   0.91079   Biso      1.000     H          0.095828  
         H15       1.0000    0.18160   0.40934   0.09066   Biso      1.000     H          0.113397  
         H16       1.0000    0.33010   0.41079   0.08921   Biso      1.000     H          0.094251  
         H17       1.0000    0.58135   0.59119   0.09119   Biso      1.000     H          0.131217  
         H18       1.0000    0.79927   0.67590   0.35806   Biso      1.000     H          0.080274  
         H19       1.0000    0.70597   0.91134   0.16020   Biso      1.000     H          0.078334  
         H20       1.0000    0.43316   0.41088   0.91088   Biso      1.000     H          0.097734  
         H21       1.0000    0.81397   0.80007   0.10091   Biso      1.000     H          0.105198  
         H22       1.0000    0.04505   0.69781   0.39789   Biso      1.000     H          0.09837   
         H23       1.0000    0.20754   0.43846   0.26744   Biso      1.000     H          0.096962  
         H24       1.0000    0.29520   0.42521   0.33003   Biso      1.000     H          0.083875  
         H25       1.0000    0.21345   0.35407   0.33474   Biso      1.000     H          0.08065800000000001           
         H26       1.0000    0.54635   0.79894   0.65693   Biso      1.000     H          0.101647  
         H27       1.0000    0.18603   0.30007   0.39909   Biso      1.000     H          0.11078099999999999           
         H28       1.0000    0.04846   0.44932   0.60358   Biso      1.000     H          0.095179  
         H29       1.0000    0.04505   0.30219   0.60211   Biso      1.000     H          0.10144199999999999           
         H30       1.0000    0.21345   0.83474   0.85407   Biso      1.000     H          0.080822  
         H31       1.0000    0.29520   0.83003   0.92521   Biso      1.000     H          0.082111  
         H32       1.0000    0.20754   0.76744   0.93846   Biso      1.000     H          0.096241  
         H33       1.0000    0.18603   0.89909   0.80007   Biso      1.000     H          0.1095    
         H34       1.0000    0.04846   0.10358   0.94932   Biso      1.000     H          0.096539  
         H35       1.0000    0.04505   0.10211   0.80219   Biso      1.000     H          0.099517  
         H36       1.0000    0.18226   0.20856   0.11338   Biso      1.000     H          0.080756  
         H37       1.0000    0.26992   0.14597   0.12663   Biso      1.000     H          0.076585  
         H38       1.0000    0.26401   0.21327   0.04224   Biso      1.000     H          0.106253  
         H39       1.0000    0.50465   0.88967   0.69860   Biso      1.000     H          0.09021799999999999           
         H40       1.0000    0.18544   0.10013   0.20162   Biso      1.000     H          0.102062  
         H41       1.0000    0.04846   0.89642   0.05068   Biso      1.000     H          0.096185  
         H42       1.0000    0.04505   0.89789   0.19781   Biso      1.000     H          0.09954   
         H43       1.0000    0.18753   0.54891   0.59767   Biso      1.000     H          0.085221  
         H44       1.0000    0.56684   0.08912   0.41088   Biso      1.000     H          0.09800299999999999           
         H45       1.0000    0.04846   0.55068   0.39642   Biso      1.000     H          0.088049  
         H46       1.0000    0.79927   0.85806   0.17590   Biso      1.000     H          0.07977999999999999           
         H47       1.0000    0.18544   0.70162   0.60013   Biso      1.000     H          0.094796  
         H48       1.0000    0.66990   0.08921   0.58921   Biso      1.000     H          0.09598200000000001           
         H49       1.0000    0.81247   0.40233   0.54891   Biso      1.000     H          0.085038  
         H50       1.0000    0.81397   0.19993   0.89909   Biso      1.000     H          0.104627  
         H51       1.0000    0.81840   0.09066   0.59066   Biso      1.000     H          0.11733099999999999           
         H52       1.0000    0.51943   0.67852   0.10209   Biso      1.000     H          0.087029  
         H53       1.0000    0.81657   0.09951   0.78167   Biso      1.000     H          0.084824  
         H54       1.0000    0.74397   0.13651   0.85316   Biso      1.000     H          0.078798  
         H55       1.0000    0.72327   0.04623   0.79738   Biso      1.000     H          0.103315  
         H56       1.0000    0.95154   0.05068   0.10358   Biso      1.000     H          0.095968  
         H57       1.0000    0.95495   0.80219   0.89789   Biso      1.000     H          0.10056699999999999           
         H58       1.0000    0.95154   0.94932   0.89642   Biso      1.000     H          0.096546  
         H59       1.0000    0.41865   0.09119   0.40881   Biso      1.000     H          0.13006199999999998           
         H60       1.0000    0.46295   0.84800   0.60787   Biso      1.000     H          0.093598  
         H61       1.0000    0.41865   0.90881   0.59119   Biso      1.000     H          0.14257   
         H62       1.0000    0.66990   0.91079   0.41079   Biso      1.000     H          0.09389700000000001           
         H63       1.0000    0.81840   0.90934   0.40934   Biso      1.000     H          0.11379600000000001           
         H64       1.0000    0.95495   0.19781   0.10211   Biso      1.000     H          0.098786  
         O1        1.0000    0.80690   0.61410   0.46270   Biso      1.000     O          -0.196381           
         O2        1.0000    0.84230   0.32540   0.95170   Biso      1.000     O          -0.533993           
         O3        1.0000    0.80690   0.03730   0.88590   Biso      1.000     O          -0.20080599999999998          
         O4        1.0000    0.92800   0.67477   0.95040   Biso      1.000     O          -0.566209           
         O5        1.0000    0.84230   0.67460   0.04830   Biso      1.000     O          -0.537393           
         O6        1.0000    0.80690   0.96270   0.11410   Biso      1.000     O          -0.19757  
         O7        1.0000    0.84230   0.45170   0.82540   Biso      1.000     O          -0.536324           
         O8        1.0000    0.92800   0.45040   0.17477   Biso      1.000     O          -0.565902           
         O9        1.0000    0.84230   0.54830   0.17460   Biso      1.000     O          -0.5357810000000001           
         O10       1.0000    0.92800   0.32523   0.04960   Biso      1.000     O          -0.568484           
         O11       1.0000    0.92800   0.54960   0.82523   Biso      1.000     O          -0.568889           
         O12       1.0000    0.57070   0.90100   0.59900   Biso      1.000     O          -0.145534           
         O13       1.0000    0.42930   0.59900   0.09900   Biso      1.000     O          -0.150758           
         O14       1.0000    0.88100   0.50000   0.00000   Biso      1.000     O          -1.019968           
         O15       1.0000    0.07200   0.95040   0.32523   Biso      1.000     O          -0.567299           
         O16       1.0000    0.15770   0.04830   0.32540   Biso      1.000     O          -0.534651           
         O17       1.0000    0.19310   0.11410   0.03730   Biso      1.000     O          -0.20284000000000002          
         O18       1.0000    0.07200   0.04960   0.67477   Biso      1.000     O          -0.567026           
         O19       1.0000    0.15770   0.95170   0.67460   Biso      1.000     O          -0.5363720000000001           
         O20       1.0000    0.19310   0.88590   0.96270   Biso      1.000     O          -0.19613599999999998          
         O21       1.0000    0.07200   0.17477   0.54960   Biso      1.000     O          -0.565467           
         O22       1.0000    0.15770   0.17460   0.45170   Biso      1.000     O          -0.535026           
         O23       1.0000    0.19310   0.46270   0.38590   Biso      1.000     O          -0.195441           
         O24       1.0000    0.07200   0.82523   0.45040   Biso      1.000     O          -0.568766           
         O25       1.0000    0.15770   0.82540   0.54830   Biso      1.000     O          -0.538098           
         O26       1.0000    0.94420   0.94750   0.44750   Biso      1.000     O          -0.5288430000000001           
         O27       1.0000    0.94420   0.05250   0.55250   Biso      1.000     O          -0.5289699999999999           
         O28       1.0000    0.29100   0.94600   0.55400   Biso      1.000     O          -0.503739           
         O29       1.0000    0.05580   0.44750   0.05250   Biso      1.000     O          -0.5297569999999999           
         O30       1.0000    0.29100   0.05400   0.44600   Biso      1.000     O          -0.504704           
         O31       1.0000    0.11900   0.00000   0.50000   Biso      1.000     O          -1.019978           
         O32       1.0000    0.70900   0.44600   0.94600   Biso      1.000     O          -0.5037560000000001           
         O33       1.0000    0.70900   0.55400   0.05400   Biso      1.000     O          -0.5035229999999999           
         O34       1.0000    0.05580   0.55250   0.94750   Biso      1.000     O          -0.5284909999999999           
         Zn1       1.0000    0.05519   0.93462   0.43462   Biso      1.000     Zn          0.9400430000000001  
         Zn2       1.0000    0.81561   0.56563   0.06563   Biso      1.000     Zn          0.957765  
         Zn3       1.0000    0.94481   0.43462   0.06538   Biso      1.000     Zn          0.940099  
         Zn4       1.0000    0.18439   0.06563   0.43437   Biso      1.000     Zn          0.958412  
         Zn5       1.0000    0.18439   0.93437   0.56563   Biso      1.000     Zn          0.958405  
         Zn6       1.0000    0.05519   0.06538   0.56538   Biso      1.000     Zn          0.940097  
         Zn7       1.0000    0.81561   0.43437   0.93437   Biso      1.000     Zn          0.9588559999999999  
         Zn8       1.0000    0.94481   0.56538   0.93462   Biso      1.000     Zn          0.9401579999999999 