
##########################################################################
#               Crystallographic Information Format file
#               Produced by PyCifRW module
#
#  This is a CIF file.  CIF has been adopted by the International
#  Union of Crystallography as the standard for data archiving and
#  transmission.
#
#  For information on this file format, follow the CIF links at
#  http://www.iucr.org
##########################################################################

data_image0

_cell_length_a                          8.921
_cell_length_b                          11.935
_cell_length_c                          13.274
_cell_angle_alpha                       90
_cell_angle_beta                        90
_cell_angle_gamma                       90
_symmetry_space_group_name_H-M          'P 1'
_symmetry_int_tables_number             1
loop_
  _symmetry_equiv_pos_as_xyz
         'x, y, z' 
loop_
  _atom_site_label
  _atom_site_occupancy
  _atom_site_fract_x
  _atom_site_fract_y
  _atom_site_fract_z
  _atom_site_thermal_displace_type
  _atom_site_B_iso_or_equiv
  _atom_site_type_symbol
  _atom_site_charge
         C1        1.0000    0.25310   0.11790   0.59730   Biso      1.000     C          0.700858  
         C2        1.0000    0.62210   0.72240   0.04780   Biso      1.000     C          0.694184  
         C3        1.0000    0.74690   0.88210   0.40270   Biso      1.000     C          0.700858  
         C4        1.0000    0.81590   0.77440   0.44200   Biso      1.000     C          -0.549579           
         C5        1.0000    0.87790   0.77760   0.54780   Biso      1.000     C          0.694926  
         C6        1.0000    0.24690   0.61790   0.59730   Biso      1.000     C          0.700839  
         C7        1.0000    0.31590   0.72560   0.55800   Biso      1.000     C          -0.549481           
         C8        1.0000    0.37790   0.72240   0.45220   Biso      1.000     C          0.694941  
         C9        1.0000    0.25310   0.88210   0.09730   Biso      1.000     C          0.700808  
         C10       1.0000    0.18410   0.77440   0.05800   Biso      1.000     C          -0.549415           
         C11       1.0000    0.12210   0.77760   0.95220   Biso      1.000     C          0.69446   
         C12       1.0000    0.24690   0.38210   0.09730   Biso      1.000     C          0.699922  
         C13       1.0000    0.31590   0.27440   0.05800   Biso      1.000     C          -0.54913  
         C14       1.0000    0.37790   0.27760   0.95220   Biso      1.000     C          0.694183  
         C15       1.0000    0.18410   0.22560   0.55800   Biso      1.000     C          -0.54958  
         C16       1.0000    0.12210   0.22240   0.45220   Biso      1.000     C          0.694926  
         C17       1.0000    0.75310   0.38210   0.40270   Biso      1.000     C          0.70084   
         C18       1.0000    0.68410   0.27440   0.44200   Biso      1.000     C          -0.549483           
         C19       1.0000    0.62210   0.27760   0.54780   Biso      1.000     C          0.694944  
         C20       1.0000    0.74690   0.11790   0.90270   Biso      1.000     C          0.700808  
         C21       1.0000    0.81590   0.22560   0.94200   Biso      1.000     C          -0.549415           
         C22       1.0000    0.87790   0.22240   0.04780   Biso      1.000     C          0.69446   
         C23       1.0000    0.68410   0.72560   0.94200   Biso      1.000     C          -0.549132           
         C24       1.0000    0.75310   0.61790   0.90270   Biso      1.000     C          0.699925  
         Ca1       1.0000    0.00000   0.76175   0.75000   Biso      1.000     Ca          1.434932  
         Ca2       1.0000    0.50000   0.26175   0.75000   Biso      1.000     Ca          1.434872  
         Ca3       1.0000    0.50000   0.73825   0.25000   Biso      1.000     Ca          1.434865  
         Ca4       1.0000    0.00000   0.23825   0.25000   Biso      1.000     Ca          1.434938  
         H1        1.0000    0.75100   0.78200   0.93800   Biso      1.000     H          0.185197  
         H2        1.0000    0.89900   0.24100   0.89500   Biso      1.000     H          0.191958  
         H3        1.0000    0.60100   0.74100   0.89500   Biso      1.000     H          0.192282  
         H4        1.0000    0.74900   0.71800   0.43800   Biso      1.000     H          0.185212  
         H5        1.0000    0.89900   0.75900   0.39500   Biso      1.000     H          0.191928  
         H6        1.0000    0.24900   0.78200   0.56200   Biso      1.000     H          0.185201  
         H7        1.0000    0.74900   0.28200   0.93800   Biso      1.000     H          0.185317  
         H8        1.0000    0.10100   0.75900   0.10500   Biso      1.000     H          0.191959  
         H9        1.0000    0.24900   0.21800   0.06200   Biso      1.000     H          0.185197  
         H10       1.0000    0.39900   0.25900   0.10500   Biso      1.000     H          0.192283  
         H11       1.0000    0.25100   0.28200   0.56200   Biso      1.000     H          0.185212  
         H12       1.0000    0.10100   0.24100   0.60500   Biso      1.000     H          0.19193   
         H13       1.0000    0.75100   0.21800   0.43800   Biso      1.000     H          0.185205  
         H14       1.0000    0.60100   0.25900   0.39500   Biso      1.000     H          0.191874  
         H15       1.0000    0.25100   0.71800   0.06200   Biso      1.000     H          0.185316  
         H16       1.0000    0.39900   0.74100   0.60500   Biso      1.000     H          0.191868  
         Ni1       1.0000    0.00000   0.00000   0.50000   Biso      1.000     Ni          0.7335    
         Ni2       1.0000    0.50000   0.50000   0.50000   Biso      1.000     Ni          0.735542  
         Ni3       1.0000    0.00000   0.00000   0.00000   Biso      1.000     Ni          0.723579  
         Ni4       1.0000    0.50000   0.50000   0.00000   Biso      1.000     Ni          0.700816  
         O1        1.0000    0.14550   0.37380   0.16140   Biso      1.000     O          -0.595711           
         O2        1.0000    0.29270   0.47580   0.06520   Biso      1.000     O          -0.514616           
         O3        1.0000    0.47700   0.35020   0.92780   Biso      1.000     O          -0.610108           
         O4        1.0000    0.16380   0.29420   0.38980   Biso      1.000     O          -0.570976           
         O5        1.0000    0.35450   0.12620   0.66140   Biso      1.000     O          -0.597819           
         O6        1.0000    0.20730   0.02420   0.56520   Biso      1.000     O          -0.523301           
         O7        1.0000    0.02300   0.14980   0.42780   Biso      1.000     O          -0.615282           
         O8        1.0000    0.85450   0.37380   0.33860   Biso      1.000     O          -0.597985           
         O9        1.0000    0.79270   0.02420   0.93480   Biso      1.000     O          -0.520993           
         O10       1.0000    0.70730   0.47580   0.43480   Biso      1.000     O          -0.523737           
         O11       1.0000    0.52300   0.35020   0.57220   Biso      1.000     O          -0.615634           
         O12       1.0000    0.83620   0.29420   0.11020   Biso      1.000     O          -0.570435           
         O13       1.0000    0.64550   0.12620   0.83860   Biso      1.000     O          -0.597157           
         O14       1.0000    0.33620   0.20580   0.88980   Biso      1.000     O          -0.570086           
         O15       1.0000    0.33620   0.79420   0.38980   Biso      1.000     O          -0.570942           
         O16       1.0000    0.64550   0.87380   0.33860   Biso      1.000     O          -0.597818           
         O17       1.0000    0.20730   0.97580   0.06520   Biso      1.000     O          -0.520995           
         O18       1.0000    0.35450   0.87380   0.16140   Biso      1.000     O          -0.597157           
         O19       1.0000    0.16380   0.70580   0.88980   Biso      1.000     O          -0.570435           
         O20       1.0000    0.47700   0.64980   0.42780   Biso      1.000     O          -0.615636           
         O21       1.0000    0.29270   0.52420   0.56520   Biso      1.000     O          -0.523739           
         O22       1.0000    0.14550   0.62620   0.66140   Biso      1.000     O          -0.597988           
         O23       1.0000    0.66380   0.79420   0.11020   Biso      1.000     O          -0.570082           
         O24       1.0000    0.97700   0.85020   0.57220   Biso      1.000     O          -0.61528  
         O25       1.0000    0.79270   0.97580   0.43480   Biso      1.000     O          -0.523303           
         O26       1.0000    0.83620   0.70580   0.61020   Biso      1.000     O          -0.570975           
         O27       1.0000    0.52300   0.64980   0.07220   Biso      1.000     O          -0.610108           
         O28       1.0000    0.70730   0.52420   0.93480   Biso      1.000     O          -0.514617           
         O29       1.0000    0.85450   0.62620   0.83860   Biso      1.000     O          -0.595709           
         O30       1.0000    0.97700   0.14980   0.07220   Biso      1.000     O          -0.614046           
         O31       1.0000    0.02300   0.85020   0.92780   Biso      1.000     O          -0.614047           
         O32       1.0000    0.66380   0.20580   0.61020   Biso      1.000     O          -0.570937 