
##########################################################################
#               Crystallographic Information Format file
#               Produced by PyCifRW module
#
#  This is a CIF file.  CIF has been adopted by the International
#  Union of Crystallography as the standard for data archiving and
#  transmission.
#
#  For information on this file format, follow the CIF links at
#  http://www.iucr.org
##########################################################################

data_image0

_cell_length_a                          15.1035
_cell_length_b                          15.1035
_cell_length_c                          12.0247
_cell_angle_alpha                       90
_cell_angle_beta                        90
_cell_angle_gamma                       90
_symmetry_space_group_name_H-M          'P 1'
_symmetry_int_tables_number             1
loop_
  _symmetry_equiv_pos_as_xyz
         'x, y, z' 
loop_
  _atom_site_label
  _atom_site_occupancy
  _atom_site_fract_x
  _atom_site_fract_y
  _atom_site_fract_z
  _atom_site_thermal_displace_type
  _atom_site_B_iso_or_equiv
  _atom_site_type_symbol
  _atom_site_charge
         C1        1.0000    0.43311   0.54733   0.12075   Biso      1.000     C          -0.182427           
         C2        1.0000    0.06689   0.54733   0.62925   Biso      1.000     C          -0.182427           
         C3        1.0000    0.93393   0.04461   0.73989   Biso      1.000     C          -0.017121           
         C4        1.0000    0.00000   0.00000   0.43621   Biso      1.000     C          0.08620900000000001           
         C5        1.0000    0.00000   0.00000   0.20346   Biso      1.000     C          -0.118598           
         C6        1.0000    0.85994   0.40882   0.45153   Biso      1.000     C          0.63841   
         C7        1.0000    0.93393   0.45539   0.51011   Biso      1.000     C          -0.017121           
         C8        1.0000    0.93311   0.45267   0.62925   Biso      1.000     C          -0.182427           
         C9        1.0000    0.43393   0.54461   0.23989   Biso      1.000     C          -0.017122           
         C10       1.0000    0.50000   0.50000   0.93621   Biso      1.000     C          0.08620900000000001           
         C11       1.0000    0.50000   0.50000   0.70346   Biso      1.000     C          -0.11859700000000001          
         C12       1.0000    0.35994   0.90882   0.95153   Biso      1.000     C          0.63841   
         C13       1.0000    0.43393   0.95539   0.01011   Biso      1.000     C          -0.017121           
         C14       1.0000    0.43311   0.95267   0.12925   Biso      1.000     C          -0.182428           
         C15       1.0000    0.85994   0.09118   0.79847   Biso      1.000     C          0.63841   
         C16       1.0000    0.56689   0.45267   0.12075   Biso      1.000     C          -0.182427           
         C17       1.0000    0.90882   0.35994   0.04847   Biso      1.000     C          0.638409  
         C18       1.0000    0.95539   0.43393   0.98989   Biso      1.000     C          -0.017121           
         C19       1.0000    0.95267   0.43311   0.87075   Biso      1.000     C          -0.182427           
         C20       1.0000    0.50000   0.50000   0.06379   Biso      1.000     C          0.086208  
         C21       1.0000    0.04733   0.56689   0.87075   Biso      1.000     C          -0.182427           
         C22       1.0000    0.04461   0.56607   0.98989   Biso      1.000     C          -0.017122           
         C23       1.0000    0.40882   0.85994   0.54847   Biso      1.000     C          0.63841   
         C24       1.0000    0.45539   0.93393   0.48989   Biso      1.000     C          -0.017121           
         C25       1.0000    0.45267   0.93311   0.37075   Biso      1.000     C          -0.182427           
         C26       1.0000    0.09118   0.64006   0.04847   Biso      1.000     C          0.63841   
         C27       1.0000    0.14006   0.90882   0.79847   Biso      1.000     C          0.63841   
         C28       1.0000    0.06607   0.95539   0.73989   Biso      1.000     C          -0.017121           
         C29       1.0000    0.59118   0.14006   0.54847   Biso      1.000     C          0.63841   
         C30       1.0000    0.54461   0.06607   0.48989   Biso      1.000     C          -0.017121           
         C31       1.0000    0.06607   0.54461   0.51011   Biso      1.000     C          -0.017122           
         C32       1.0000    0.54733   0.06689   0.37075   Biso      1.000     C          -0.182427           
         C33       1.0000    0.14006   0.59118   0.45153   Biso      1.000     C          0.63841   
         C34       1.0000    0.50000   0.00000   0.18621   Biso      1.000     C          0.08620900000000001           
         C35       1.0000    0.50000   0.50000   0.29654   Biso      1.000     C          -0.118598           
         C36       1.0000    0.59118   0.35994   0.70153   Biso      1.000     C          0.63841   
         C37       1.0000    0.54461   0.43393   0.76011   Biso      1.000     C          -0.017121           
         C38       1.0000    0.54733   0.43311   0.87925   Biso      1.000     C          -0.182428           
         C39       1.0000    0.35994   0.59118   0.29847   Biso      1.000     C          0.63841   
         C40       1.0000    0.00000   0.00000   0.56379   Biso      1.000     C          0.08620900000000001           
         C41       1.0000    0.00000   0.00000   0.79654   Biso      1.000     C          -0.118598           
         C42       1.0000    0.09118   0.85994   0.20153   Biso      1.000     C          0.63841   
         C43       1.0000    0.04461   0.93393   0.26011   Biso      1.000     C          -0.017122           
         C44       1.0000    0.04733   0.93311   0.37925   Biso      1.000     C          -0.182428           
         C45       1.0000    0.50000   0.00000   0.31379   Biso      1.000     C          0.086208  
         C46       1.0000    0.50000   0.00000   0.54654   Biso      1.000     C          -0.11859700000000001          
         C47       1.0000    0.90882   0.14006   0.20153   Biso      1.000     C          0.63841   
         C48       1.0000    0.50000   0.00000   0.95346   Biso      1.000     C          -0.11859700000000001          
         C49       1.0000    0.06689   0.95267   0.62075   Biso      1.000     C          -0.182428           
         C50       1.0000    0.95267   0.06689   0.37925   Biso      1.000     C          -0.182427           
         C51       1.0000    0.93311   0.04733   0.62075   Biso      1.000     C          -0.182428           
         C52       1.0000    0.56689   0.04733   0.12925   Biso      1.000     C          -0.182428           
         C53       1.0000    0.56607   0.04461   0.01011   Biso      1.000     C          -0.017121           
         C54       1.0000    0.64006   0.09118   0.95153   Biso      1.000     C          0.63841   
         C55       1.0000    0.00000   0.50000   0.45346   Biso      1.000     C          -0.118598           
         C56       1.0000    0.00000   0.50000   0.68621   Biso      1.000     C          0.086208  
         C57       1.0000    0.95539   0.06607   0.26011   Biso      1.000     C          -0.017122           
         C58       1.0000    0.56607   0.45539   0.23989   Biso      1.000     C          -0.017122           
         C59       1.0000    0.45539   0.56607   0.76011   Biso      1.000     C          -0.017122           
         C60       1.0000    0.40882   0.64006   0.70153   Biso      1.000     C          0.638411  
         C61       1.0000    0.00000   0.50000   0.04654   Biso      1.000     C          -0.118598           
         C62       1.0000    0.00000   0.50000   0.81379   Biso      1.000     C          0.086208  
         C63       1.0000    0.64006   0.40882   0.29847   Biso      1.000     C          0.63841   
         C64       1.0000    0.45267   0.56689   0.87925   Biso      1.000     C          -0.182428           
         H1        1.0000    0.38162   0.57318   0.09265   Biso      1.000     H          0.131511  
         H2        1.0000    0.61838   0.42682   0.09265   Biso      1.000     H          0.131511  
         H3        1.0000    0.07318   0.61838   0.84265   Biso      1.000     H          0.131511  
         H4        1.0000    0.80600   0.25000   0.62500   Biso      1.000     H          0.42952399999999996           
         H5        1.0000    0.30600   0.75000   0.12500   Biso      1.000     H          0.429525  
         H6        1.0000    0.69400   0.25000   0.12500   Biso      1.000     H          0.42952399999999996           
         H7        1.0000    0.19400   0.75000   0.62500   Biso      1.000     H          0.429525  
         H8        1.0000    0.75000   0.30600   0.87500   Biso      1.000     H          0.42952399999999996           
         H9        1.0000    0.25000   0.80600   0.37500   Biso      1.000     H          0.429525  
         H10       1.0000    0.75000   0.19400   0.37500   Biso      1.000     H          0.42952399999999996           
         H11       1.0000    0.25000   0.69400   0.87500   Biso      1.000     H          0.429525  
         H12       1.0000    0.00000   0.00000   0.12610   Biso      1.000     H          0.1356    
         H13       1.0000    0.50000   0.00000   0.87610   Biso      1.000     H          0.1356    
         H14       1.0000    0.00000   0.50000   0.37610   Biso      1.000     H          0.1356    
         H15       1.0000    0.00000   0.50000   0.12390   Biso      1.000     H          0.1356    
         H16       1.0000    0.50000   0.00000   0.62390   Biso      1.000     H          0.1356    
         H17       1.0000    0.00000   0.00000   0.87390   Biso      1.000     H          0.1356    
         H18       1.0000    0.11838   0.92682   0.59265   Biso      1.000     H          0.131511  
         H19       1.0000    0.50000   0.50000   0.62610   Biso      1.000     H          0.1356    
         H20       1.0000    0.50000   0.50000   0.37390   Biso      1.000     H          0.1356    
         H21       1.0000    0.92682   0.38162   0.84265   Biso      1.000     H          0.131511  
         H22       1.0000    0.42682   0.61838   0.90735   Biso      1.000     H          0.131511  
         H23       1.0000    0.88162   0.42682   0.65735   Biso      1.000     H          0.131511  
         H24       1.0000    0.42682   0.88162   0.34265   Biso      1.000     H          0.131511  
         H25       1.0000    0.57318   0.11838   0.34265   Biso      1.000     H          0.131511  
         H26       1.0000    0.92682   0.11838   0.40735   Biso      1.000     H          0.131512  
         H27       1.0000    0.61838   0.07318   0.15735   Biso      1.000     H          0.131511  
         H28       1.0000    0.11838   0.57318   0.65735   Biso      1.000     H          0.131511  
         H29       1.0000    0.07318   0.88162   0.40735   Biso      1.000     H          0.131511  
         H30       1.0000    0.38162   0.92682   0.15735   Biso      1.000     H          0.131511  
         H31       1.0000    0.88162   0.07318   0.59265   Biso      1.000     H          0.131511  
         H32       1.0000    0.57318   0.38162   0.90735   Biso      1.000     H          0.131512  
         O1        1.0000    0.25000   0.75516   0.87500   Biso      1.000     O          -0.991057           
         O2        1.0000    0.89838   0.28970   0.99408   Biso      1.000     O          -0.616556           
         O3        1.0000    0.88048   0.38196   0.35872   Biso      1.000     O          -0.56274  
         O4        1.0000    0.78970   0.39838   0.50592   Biso      1.000     O          -0.616557           
         O5        1.0000    0.38048   0.88196   0.85872   Biso      1.000     O          -0.562739           
         O6        1.0000    0.28970   0.89838   0.00592   Biso      1.000     O          -0.616556           
         O7        1.0000    0.61952   0.11804   0.85872   Biso      1.000     O          -0.56274  
         O8        1.0000    0.21030   0.60162   0.50592   Biso      1.000     O          -0.616556           
         O9        1.0000    0.75000   0.25516   0.37500   Biso      1.000     O          -0.991057           
         O10       1.0000    0.71030   0.10162   0.00592   Biso      1.000     O          -0.616556           
         O11       1.0000    0.38196   0.61952   0.60872   Biso      1.000     O          -0.562738           
         O12       1.0000    0.39838   0.71030   0.75592   Biso      1.000     O          -0.616556           
         O13       1.0000    0.88196   0.11952   0.10872   Biso      1.000     O          -0.562739           
         O14       1.0000    0.89838   0.21030   0.25592   Biso      1.000     O          -0.616557           
         O15       1.0000    0.11804   0.88048   0.10872   Biso      1.000     O          -0.562738           
         O16       1.0000    0.10162   0.78970   0.25592   Biso      1.000     O          -0.616556           
         O17       1.0000    0.61804   0.38048   0.60872   Biso      1.000     O          -0.562739           
         O18       1.0000    0.11952   0.61804   0.35872   Biso      1.000     O          -0.562739           
         O19       1.0000    0.88196   0.38048   0.14128   Biso      1.000     O          -0.562739           
         O20       1.0000    0.71030   0.39838   0.24408   Biso      1.000     O          -0.616556           
         O21       1.0000    0.38048   0.61804   0.39128   Biso      1.000     O          -0.562739           
         O22       1.0000    0.61952   0.38196   0.39128   Biso      1.000     O          -0.56274  
         O23       1.0000    0.28970   0.60162   0.24408   Biso      1.000     O          -0.616556           
         O24       1.0000    0.88048   0.11804   0.89128   Biso      1.000     O          -0.56274  
         O25       1.0000    0.78970   0.10162   0.74408   Biso      1.000     O          -0.616556           
         O26       1.0000    0.21030   0.89838   0.74408   Biso      1.000     O          -0.616556           
         O27       1.0000    0.11952   0.88196   0.89128   Biso      1.000     O          -0.562739           
         O28       1.0000    0.11804   0.61952   0.14128   Biso      1.000     O          -0.562738           
         O29       1.0000    0.10162   0.71030   0.99408   Biso      1.000     O          -0.616557           
         O30       1.0000    0.61804   0.11952   0.64128   Biso      1.000     O          -0.562739           
         O31       1.0000    0.25000   0.74484   0.37500   Biso      1.000     O          -0.991057           
         O32       1.0000    0.60162   0.28970   0.75592   Biso      1.000     O          -0.616557           
         O33       1.0000    0.74484   0.25000   0.62500   Biso      1.000     O          -0.99106  
         O34       1.0000    0.60162   0.21030   0.49408   Biso      1.000     O          -0.616557           
         O35       1.0000    0.24484   0.75000   0.12500   Biso      1.000     O          -0.99106  
         O36       1.0000    0.75516   0.25000   0.12500   Biso      1.000     O          -0.99106  
         O37       1.0000    0.38196   0.88048   0.64128   Biso      1.000     O          -0.562738           
         O38       1.0000    0.25516   0.75000   0.62500   Biso      1.000     O          -0.99106  
         O39       1.0000    0.39838   0.78970   0.49408   Biso      1.000     O          -0.616556           
         O40       1.0000    0.75000   0.24484   0.87500   Biso      1.000     O          -0.991058           
         V1        1.0000    0.69170   0.19170   0.75000   Biso      1.000     V          1.6761700000000002  
         V2        1.0000    0.80830   0.30830   0.25000   Biso      1.000     V          1.6761689999999998  
         V3        1.0000    0.80830   0.19170   0.00000   Biso      1.000     V          1.6761700000000002  
         V4        1.0000    0.19170   0.80830   0.00000   Biso      1.000     V          1.6761709999999999  
         V5        1.0000    0.69170   0.30830   0.50000   Biso      1.000     V          1.6761689999999998  
         V6        1.0000    0.30830   0.80830   0.75000   Biso      1.000     V          1.6761700000000002  
         V7        1.0000    0.19170   0.69170   0.25000   Biso      1.000     V          1.6761700000000002  
         V8        1.0000    0.30830   0.69170   0.50000   Biso      1.000     V          1.6761700000000002 