
##########################################################################
#               Crystallographic Information Format file
#               Produced by PyCifRW module
#
#  This is a CIF file.  CIF has been adopted by the International
#  Union of Crystallography as the standard for data archiving and
#  transmission.
#
#  For information on this file format, follow the CIF links at
#  http://www.iucr.org
##########################################################################

data_image0

_cell_length_a                          15.1423
_cell_length_b                          15.1423
_cell_length_c                          12.0449
_cell_angle_alpha                       90
_cell_angle_beta                        90
_cell_angle_gamma                       90
_symmetry_space_group_name_H-M          'P 1'
_symmetry_int_tables_number             1
loop_
  _symmetry_equiv_pos_as_xyz
         'x, y, z' 
loop_
  _atom_site_label
  _atom_site_occupancy
  _atom_site_fract_x
  _atom_site_fract_y
  _atom_site_fract_z
  _atom_site_thermal_displace_type
  _atom_site_B_iso_or_equiv
  _atom_site_type_symbol
  _atom_site_charge
         C1        1.0000    0.43270   0.54580   0.11840   Biso      1.000     C          -0.18728599999999998          
         C2        1.0000    0.06730   0.54580   0.63160   Biso      1.000     C          -0.18728699999999998          
         C3        1.0000    0.93200   0.04100   0.73760   Biso      1.000     C          -0.018136000000000003         
         C4        1.0000    0.00000   0.00000   0.43710   Biso      1.000     C          0.091066  
         C5        1.0000    0.00000   0.00000   0.20800   Biso      1.000     C          -0.118993           
         C6        1.0000    0.86010   0.40750   0.45690   Biso      1.000     C          0.637209  
         C7        1.0000    0.93200   0.45900   0.51240   Biso      1.000     C          -0.018137           
         C8        1.0000    0.93270   0.45420   0.63160   Biso      1.000     C          -0.18728699999999998          
         C9        1.0000    0.43200   0.54100   0.23760   Biso      1.000     C          -0.018137999999999998         
         C10       1.0000    0.50000   0.50000   0.93710   Biso      1.000     C          0.091067  
         C11       1.0000    0.50000   0.50000   0.70800   Biso      1.000     C          -0.11899100000000001          
         C12       1.0000    0.36010   0.90750   0.95690   Biso      1.000     C          0.637209  
         C13       1.0000    0.43200   0.95900   0.01240   Biso      1.000     C          -0.018137           
         C14       1.0000    0.43270   0.95420   0.13160   Biso      1.000     C          -0.187288           
         C15       1.0000    0.86010   0.09250   0.79310   Biso      1.000     C          0.637209  
         C16       1.0000    0.56730   0.45420   0.11840   Biso      1.000     C          -0.18728599999999998          
         C17       1.0000    0.90750   0.36010   0.04310   Biso      1.000     C          0.637209  
         C18       1.0000    0.95900   0.43200   0.98760   Biso      1.000     C          -0.018137           
         C19       1.0000    0.95420   0.43270   0.86840   Biso      1.000     C          -0.18728599999999998          
         C20       1.0000    0.50000   0.50000   0.06290   Biso      1.000     C          0.09106399999999999           
         C21       1.0000    0.04580   0.56730   0.86840   Biso      1.000     C          -0.18728699999999998          
         C22       1.0000    0.04100   0.56800   0.98760   Biso      1.000     C          -0.01814  
         C23       1.0000    0.40750   0.86010   0.54310   Biso      1.000     C          0.63721   
         C24       1.0000    0.45900   0.93200   0.48760   Biso      1.000     C          -0.018137999999999998         
         C25       1.0000    0.45420   0.93270   0.36840   Biso      1.000     C          -0.18728599999999998          
         C26       1.0000    0.09250   0.63990   0.04310   Biso      1.000     C          0.637209  
         C27       1.0000    0.13990   0.90750   0.79310   Biso      1.000     C          0.637209  
         C28       1.0000    0.06800   0.95900   0.73760   Biso      1.000     C          -0.018137999999999998         
         C29       1.0000    0.59250   0.13990   0.54310   Biso      1.000     C          0.637209  
         C30       1.0000    0.54100   0.06800   0.48760   Biso      1.000     C          -0.018137           
         C31       1.0000    0.06800   0.54100   0.51240   Biso      1.000     C          -0.018139           
         C32       1.0000    0.54580   0.06730   0.36840   Biso      1.000     C          -0.18728599999999998          
         C33       1.0000    0.13990   0.59250   0.45690   Biso      1.000     C          0.63721   
         C34       1.0000    0.50000   0.00000   0.18710   Biso      1.000     C          0.091065  
         C35       1.0000    0.50000   0.50000   0.29200   Biso      1.000     C          -0.118985           
         C36       1.0000    0.59250   0.36010   0.70690   Biso      1.000     C          0.637209  
         C37       1.0000    0.54100   0.43200   0.76240   Biso      1.000     C          -0.018129           
         C38       1.0000    0.54580   0.43270   0.88160   Biso      1.000     C          -0.18728699999999998          
         C39       1.0000    0.36010   0.59250   0.29310   Biso      1.000     C          0.637209  
         C40       1.0000    0.00000   0.00000   0.56290   Biso      1.000     C          0.091065  
         C41       1.0000    0.00000   0.00000   0.79200   Biso      1.000     C          -0.11897999999999999          
         C42       1.0000    0.09250   0.86010   0.20690   Biso      1.000     C          0.637208  
         C43       1.0000    0.04100   0.93200   0.26240   Biso      1.000     C          -0.018132           
         C44       1.0000    0.04580   0.93270   0.38160   Biso      1.000     C          -0.187289           
         C45       1.0000    0.50000   0.00000   0.31290   Biso      1.000     C          0.09106399999999999           
         C46       1.0000    0.50000   0.00000   0.54200   Biso      1.000     C          -0.118979           
         C47       1.0000    0.90750   0.13990   0.20690   Biso      1.000     C          0.637209  
         C48       1.0000    0.50000   0.00000   0.95800   Biso      1.000     C          -0.118986           
         C49       1.0000    0.06730   0.95420   0.61840   Biso      1.000     C          -0.187288           
         C50       1.0000    0.95420   0.06730   0.38160   Biso      1.000     C          -0.187288           
         C51       1.0000    0.93270   0.04580   0.61840   Biso      1.000     C          -0.18728699999999998          
         C52       1.0000    0.56730   0.04580   0.13160   Biso      1.000     C          -0.187288           
         C53       1.0000    0.56800   0.04100   0.01240   Biso      1.000     C          -0.018131           
         C54       1.0000    0.63990   0.09250   0.95690   Biso      1.000     C          0.637209  
         C55       1.0000    0.00000   0.50000   0.45800   Biso      1.000     C          -0.11897999999999999          
         C56       1.0000    0.00000   0.50000   0.68710   Biso      1.000     C          0.09106399999999999           
         C57       1.0000    0.95900   0.06800   0.26240   Biso      1.000     C          -0.01813  
         C58       1.0000    0.56800   0.45900   0.23760   Biso      1.000     C          -0.018131           
         C59       1.0000    0.45900   0.56800   0.76240   Biso      1.000     C          -0.01813  
         C60       1.0000    0.40750   0.63990   0.70690   Biso      1.000     C          0.63721   
         C61       1.0000    0.00000   0.50000   0.04200   Biso      1.000     C          -0.11898099999999999          
         C62       1.0000    0.00000   0.50000   0.81290   Biso      1.000     C          0.091063  
         C63       1.0000    0.63990   0.40750   0.29310   Biso      1.000     C          0.637209  
         C64       1.0000    0.45420   0.56730   0.88160   Biso      1.000     C          -0.187288           
         H1        1.0000    0.38162   0.57318   0.09265   Biso      1.000     H          0.142895  
         H2        1.0000    0.61838   0.42682   0.09265   Biso      1.000     H          0.142895  
         H3        1.0000    0.07318   0.61838   0.84265   Biso      1.000     H          0.142894  
         H4        1.0000    0.80600   0.25000   0.62500   Biso      1.000     H          0.42528900000000003           
         H5        1.0000    0.30600   0.75000   0.12500   Biso      1.000     H          0.42528999999999995           
         H6        1.0000    0.69400   0.25000   0.12500   Biso      1.000     H          0.42528900000000003           
         H7        1.0000    0.19400   0.75000   0.62500   Biso      1.000     H          0.42528999999999995           
         H8        1.0000    0.75000   0.30600   0.87500   Biso      1.000     H          0.42528900000000003           
         H9        1.0000    0.25000   0.80600   0.37500   Biso      1.000     H          0.42528999999999995           
         H10       1.0000    0.75000   0.19400   0.37500   Biso      1.000     H          0.42528900000000003           
         H11       1.0000    0.25000   0.69400   0.87500   Biso      1.000     H          0.42528999999999995           
         H12       1.0000    0.00000   0.00000   0.13100   Biso      1.000     H          0.131714  
         H13       1.0000    0.50000   0.00000   0.88100   Biso      1.000     H          0.131714  
         H14       1.0000    0.00000   0.50000   0.38100   Biso      1.000     H          0.13171300000000002           
         H15       1.0000    0.00000   0.50000   0.11900   Biso      1.000     H          0.13171300000000002           
         H16       1.0000    0.50000   0.00000   0.61900   Biso      1.000     H          0.13171300000000002           
         H17       1.0000    0.00000   0.00000   0.86900   Biso      1.000     H          0.13171300000000002           
         H18       1.0000    0.11838   0.92682   0.59265   Biso      1.000     H          0.142894  
         H19       1.0000    0.50000   0.50000   0.63100   Biso      1.000     H          0.131714  
         H20       1.0000    0.50000   0.50000   0.36900   Biso      1.000     H          0.131714  
         H21       1.0000    0.92682   0.38162   0.84265   Biso      1.000     H          0.142894  
         H22       1.0000    0.42682   0.61838   0.90735   Biso      1.000     H          0.142895  
         H23       1.0000    0.88162   0.42682   0.65735   Biso      1.000     H          0.142894  
         H24       1.0000    0.42682   0.88162   0.34265   Biso      1.000     H          0.142894  
         H25       1.0000    0.57318   0.11838   0.34265   Biso      1.000     H          0.142894  
         H26       1.0000    0.92682   0.11838   0.40735   Biso      1.000     H          0.142895  
         H27       1.0000    0.61838   0.07318   0.15735   Biso      1.000     H          0.142895  
         H28       1.0000    0.11838   0.57318   0.65735   Biso      1.000     H          0.142894  
         H29       1.0000    0.07318   0.88162   0.40735   Biso      1.000     H          0.142894  
         H30       1.0000    0.38162   0.92682   0.15735   Biso      1.000     H          0.142894  
         H31       1.0000    0.88162   0.07318   0.59265   Biso      1.000     H          0.142895  
         H32       1.0000    0.57318   0.38162   0.90735   Biso      1.000     H          0.142895  
         O1        1.0000    0.25000   0.75610   0.87500   Biso      1.000     O          -0.984476           
         O2        1.0000    0.89780   0.29060   0.98850   Biso      1.000     O          -0.603427           
         O3        1.0000    0.88070   0.37750   0.36420   Biso      1.000     O          -0.5818409999999999           
         O4        1.0000    0.79060   0.39780   0.51150   Biso      1.000     O          -0.603428           
         O5        1.0000    0.38070   0.87750   0.86420   Biso      1.000     O          -0.5818399999999999           
         O6        1.0000    0.29060   0.89780   0.01150   Biso      1.000     O          -0.603426           
         O7        1.0000    0.61930   0.12250   0.86420   Biso      1.000     O          -0.581842           
         O8        1.0000    0.20940   0.60220   0.51150   Biso      1.000     O          -0.603427           
         O9        1.0000    0.75000   0.25610   0.37500   Biso      1.000     O          -0.984476           
         O10       1.0000    0.70940   0.10220   0.01150   Biso      1.000     O          -0.603427           
         O11       1.0000    0.37750   0.61930   0.61420   Biso      1.000     O          -0.581839           
         O12       1.0000    0.39780   0.70940   0.76150   Biso      1.000     O          -0.603427           
         O13       1.0000    0.87750   0.11930   0.11420   Biso      1.000     O          -0.5818399999999999           
         O14       1.0000    0.89780   0.20940   0.26150   Biso      1.000     O          -0.603427           
         O15       1.0000    0.12250   0.88070   0.11420   Biso      1.000     O          -0.581839           
         O16       1.0000    0.10220   0.79060   0.26150   Biso      1.000     O          -0.603426           
         O17       1.0000    0.62250   0.38070   0.61420   Biso      1.000     O          -0.5818399999999999           
         O18       1.0000    0.11930   0.62250   0.36420   Biso      1.000     O          -0.5818399999999999           
         O19       1.0000    0.87750   0.38070   0.13580   Biso      1.000     O          -0.5818399999999999           
         O20       1.0000    0.70940   0.39780   0.23850   Biso      1.000     O          -0.603426           
         O21       1.0000    0.38070   0.62250   0.38580   Biso      1.000     O          -0.5818399999999999           
         O22       1.0000    0.61930   0.37750   0.38580   Biso      1.000     O          -0.581842           
         O23       1.0000    0.29060   0.60220   0.23850   Biso      1.000     O          -0.603426           
         O24       1.0000    0.88070   0.12250   0.88580   Biso      1.000     O          -0.5818409999999999           
         O25       1.0000    0.79060   0.10220   0.73850   Biso      1.000     O          -0.603426           
         O26       1.0000    0.20940   0.89780   0.73850   Biso      1.000     O          -0.603426           
         O27       1.0000    0.11930   0.87750   0.88580   Biso      1.000     O          -0.5818399999999999           
         O28       1.0000    0.12250   0.61930   0.13580   Biso      1.000     O          -0.581839           
         O29       1.0000    0.10220   0.70940   0.98850   Biso      1.000     O          -0.603425           
         O30       1.0000    0.62250   0.11930   0.63580   Biso      1.000     O          -0.5818409999999999           
         O31       1.0000    0.25000   0.74390   0.37500   Biso      1.000     O          -0.984476           
         O32       1.0000    0.60220   0.29060   0.76150   Biso      1.000     O          -0.603428           
         O33       1.0000    0.74390   0.25000   0.62500   Biso      1.000     O          -0.9844799999999999           
         O34       1.0000    0.60220   0.20940   0.48850   Biso      1.000     O          -0.603427           
         O35       1.0000    0.24390   0.75000   0.12500   Biso      1.000     O          -0.9844790000000001           
         O36       1.0000    0.75610   0.25000   0.12500   Biso      1.000     O          -0.9844780000000001           
         O37       1.0000    0.37750   0.88070   0.63580   Biso      1.000     O          -0.5818399999999999           
         O38       1.0000    0.25610   0.75000   0.62500   Biso      1.000     O          -0.9844780000000001           
         O39       1.0000    0.39780   0.79060   0.48850   Biso      1.000     O          -0.603427           
         O40       1.0000    0.75000   0.24390   0.87500   Biso      1.000     O          -0.984475           
         V1        1.0000    0.68935   0.18935   0.75000   Biso      1.000     V          1.676563  
         V2        1.0000    0.81065   0.31065   0.25000   Biso      1.000     V          1.676563  
         V3        1.0000    0.81065   0.18935   0.00000   Biso      1.000     V          1.676563  
         V4        1.0000    0.18935   0.81065   0.00000   Biso      1.000     V          1.676564  
         V5        1.0000    0.68935   0.31065   0.50000   Biso      1.000     V          1.676565  
         V6        1.0000    0.31065   0.81065   0.75000   Biso      1.000     V          1.676565  
         V7        1.0000    0.18935   0.68935   0.25000   Biso      1.000     V          1.676565  
         V8        1.0000    0.31065   0.68935   0.50000   Biso      1.000     V          1.676567 