
##########################################################################
#               Crystallographic Information Format file
#               Produced by PyCifRW module
#
#  This is a CIF file.  CIF has been adopted by the International
#  Union of Crystallography as the standard for data archiving and
#  transmission.
#
#  For information on this file format, follow the CIF links at
#  http://www.iucr.org
##########################################################################

data_image0

_cell_length_a                          15.1318
_cell_length_b                          15.1318
_cell_length_c                          12.0523
_cell_angle_alpha                       90
_cell_angle_beta                        90
_cell_angle_gamma                       90
_symmetry_space_group_name_H-M          'P 1'
_symmetry_int_tables_number             1
loop_
  _symmetry_equiv_pos_as_xyz
         'x, y, z' 
loop_
  _atom_site_label
  _atom_site_occupancy
  _atom_site_fract_x
  _atom_site_fract_y
  _atom_site_fract_z
  _atom_site_thermal_displace_type
  _atom_site_B_iso_or_equiv
  _atom_site_type_symbol
  _atom_site_charge
         C1        1.0000    0.42957   0.54135   0.12081   Biso      1.000     C          -0.171276           
         C2        1.0000    0.07043   0.54135   0.62919   Biso      1.000     C          -0.17127699999999998          
         C3        1.0000    0.93078   0.04000   0.74010   Biso      1.000     C          -0.020388           
         C4        1.0000    0.00000   0.00000   0.43588   Biso      1.000     C          0.082221  
         C5        1.0000    0.00000   0.00000   0.20384   Biso      1.000     C          -0.120646           
         C6        1.0000    0.86025   0.40696   0.45179   Biso      1.000     C          0.633045  
         C7        1.0000    0.93078   0.46000   0.50990   Biso      1.000     C          -0.020388           
         C8        1.0000    0.92957   0.45865   0.62919   Biso      1.000     C          -0.171302           
         C9        1.0000    0.43078   0.54000   0.24010   Biso      1.000     C          -0.02036  
         C10       1.0000    0.50000   0.50000   0.93588   Biso      1.000     C          0.08222   
         C11       1.0000    0.50000   0.50000   0.70384   Biso      1.000     C          -0.120647           
         C12       1.0000    0.36025   0.90696   0.95179   Biso      1.000     C          0.6330100000000001  
         C13       1.0000    0.43078   0.96000   0.00990   Biso      1.000     C          -0.020359           
         C14       1.0000    0.42957   0.95865   0.12919   Biso      1.000     C          -0.171279           
         C15       1.0000    0.86025   0.09304   0.79821   Biso      1.000     C          0.633045  
         C16       1.0000    0.57043   0.45865   0.12081   Biso      1.000     C          -0.171301           
         C17       1.0000    0.90696   0.36025   0.04821   Biso      1.000     C          0.633047  
         C18       1.0000    0.96000   0.43078   0.99010   Biso      1.000     C          -0.020387           
         C19       1.0000    0.95865   0.42957   0.87081   Biso      1.000     C          -0.171301           
         C20       1.0000    0.50000   0.50000   0.06412   Biso      1.000     C          0.082216  
         C21       1.0000    0.04135   0.57043   0.87081   Biso      1.000     C          -0.171276           
         C22       1.0000    0.04000   0.56922   0.99010   Biso      1.000     C          -0.02036  
         C23       1.0000    0.40696   0.86025   0.54821   Biso      1.000     C          0.6330100000000001  
         C24       1.0000    0.46000   0.93078   0.49010   Biso      1.000     C          -0.02036  
         C25       1.0000    0.45865   0.92957   0.37081   Biso      1.000     C          -0.17127799999999999          
         C26       1.0000    0.09304   0.63975   0.04821   Biso      1.000     C          0.633011  
         C27       1.0000    0.13975   0.90696   0.79821   Biso      1.000     C          0.6330100000000001  
         C28       1.0000    0.06922   0.96000   0.74010   Biso      1.000     C          -0.020358           
         C29       1.0000    0.59304   0.13975   0.54821   Biso      1.000     C          0.6330439999999999  
         C30       1.0000    0.54000   0.06922   0.49010   Biso      1.000     C          -0.020388999999999997         
         C31       1.0000    0.06922   0.54000   0.50990   Biso      1.000     C          -0.02036  
         C32       1.0000    0.54135   0.07043   0.37081   Biso      1.000     C          -0.171302           
         C33       1.0000    0.13975   0.59304   0.45179   Biso      1.000     C          0.633011  
         C34       1.0000    0.50000   0.00000   0.18588   Biso      1.000     C          0.082217  
         C35       1.0000    0.50000   0.50000   0.29616   Biso      1.000     C          -0.120645           
         C36       1.0000    0.59304   0.36025   0.70179   Biso      1.000     C          0.633045  
         C37       1.0000    0.54000   0.43078   0.75990   Biso      1.000     C          -0.020387           
         C38       1.0000    0.54135   0.42957   0.87919   Biso      1.000     C          -0.17130399999999998          
         C39       1.0000    0.36025   0.59304   0.29821   Biso      1.000     C          0.6330100000000001  
         C40       1.0000    0.00000   0.00000   0.56412   Biso      1.000     C          0.082219  
         C41       1.0000    0.00000   0.00000   0.79616   Biso      1.000     C          -0.120644           
         C42       1.0000    0.09304   0.86025   0.20179   Biso      1.000     C          0.6330100000000001  
         C43       1.0000    0.04000   0.93078   0.25990   Biso      1.000     C          -0.020356           
         C44       1.0000    0.04135   0.92957   0.37919   Biso      1.000     C          -0.171279           
         C45       1.0000    0.50000   0.00000   0.31412   Biso      1.000     C          0.082216  
         C46       1.0000    0.50000   0.00000   0.54616   Biso      1.000     C          -0.120646           
         C47       1.0000    0.90696   0.13975   0.20179   Biso      1.000     C          0.6330479999999999  
         C48       1.0000    0.50000   0.00000   0.95384   Biso      1.000     C          -0.120648           
         C49       1.0000    0.07043   0.95865   0.62081   Biso      1.000     C          -0.171279           
         C50       1.0000    0.95865   0.07043   0.37919   Biso      1.000     C          -0.171302           
         C51       1.0000    0.92957   0.04135   0.62081   Biso      1.000     C          -0.17130399999999998          
         C52       1.0000    0.57043   0.04135   0.12919   Biso      1.000     C          -0.17130399999999998          
         C53       1.0000    0.56922   0.04000   0.00990   Biso      1.000     C          -0.020388999999999997         
         C54       1.0000    0.63975   0.09304   0.95179   Biso      1.000     C          0.633045  
         C55       1.0000    0.00000   0.50000   0.45384   Biso      1.000     C          -0.120645           
         C56       1.0000    0.00000   0.50000   0.68588   Biso      1.000     C          0.082216  
         C57       1.0000    0.96000   0.06922   0.25990   Biso      1.000     C          -0.020387           
         C58       1.0000    0.56922   0.46000   0.24010   Biso      1.000     C          -0.020387           
         C59       1.0000    0.46000   0.56922   0.75990   Biso      1.000     C          -0.020358           
         C60       1.0000    0.40696   0.63975   0.70179   Biso      1.000     C          0.633011  
         C61       1.0000    0.00000   0.50000   0.04616   Biso      1.000     C          -0.120644           
         C62       1.0000    0.00000   0.50000   0.81412   Biso      1.000     C          0.082216  
         C63       1.0000    0.63975   0.40696   0.29821   Biso      1.000     C          0.633046  
         C64       1.0000    0.45865   0.57043   0.87919   Biso      1.000     C          -0.171279           
         H1        1.0000    0.38162   0.57318   0.09265   Biso      1.000     H          0.130647  
         H2        1.0000    0.61838   0.42682   0.09265   Biso      1.000     H          0.130631  
         H3        1.0000    0.07318   0.61838   0.84265   Biso      1.000     H          0.130647  
         H4        1.0000    0.80600   0.25000   0.62500   Biso      1.000     H          0.447684  
         H5        1.0000    0.30600   0.75000   0.12500   Biso      1.000     H          0.44765   
         H6        1.0000    0.69400   0.25000   0.12500   Biso      1.000     H          0.447687  
         H7        1.0000    0.19400   0.75000   0.62500   Biso      1.000     H          0.44764899999999996           
         H8        1.0000    0.75000   0.30600   0.87500   Biso      1.000     H          0.447686  
         H9        1.0000    0.25000   0.80600   0.37500   Biso      1.000     H          0.44765   
         H10       1.0000    0.75000   0.19400   0.37500   Biso      1.000     H          0.447687  
         H11       1.0000    0.25000   0.69400   0.87500   Biso      1.000     H          0.44765   
         H12       1.0000    0.00000   0.00000   0.12670   Biso      1.000     H          0.132847  
         H13       1.0000    0.50000   0.00000   0.87670   Biso      1.000     H          0.132845  
         H14       1.0000    0.00000   0.50000   0.37670   Biso      1.000     H          0.132846  
         H15       1.0000    0.00000   0.50000   0.12330   Biso      1.000     H          0.132846  
         H16       1.0000    0.50000   0.00000   0.62330   Biso      1.000     H          0.132845  
         H17       1.0000    0.00000   0.00000   0.87330   Biso      1.000     H          0.132846  
         H18       1.0000    0.11838   0.92682   0.59265   Biso      1.000     H          0.13064800000000001           
         H19       1.0000    0.50000   0.50000   0.62670   Biso      1.000     H          0.132846  
         H20       1.0000    0.50000   0.50000   0.37330   Biso      1.000     H          0.132847  
         H21       1.0000    0.92682   0.38162   0.84265   Biso      1.000     H          0.130631  
         H22       1.0000    0.42682   0.61838   0.90735   Biso      1.000     H          0.13064800000000001           
         H23       1.0000    0.88162   0.42682   0.65735   Biso      1.000     H          0.130631  
         H24       1.0000    0.42682   0.88162   0.34265   Biso      1.000     H          0.130647  
         H25       1.0000    0.57318   0.11838   0.34265   Biso      1.000     H          0.13063   
         H26       1.0000    0.92682   0.11838   0.40735   Biso      1.000     H          0.130632  
         H27       1.0000    0.61838   0.07318   0.15735   Biso      1.000     H          0.130631  
         H28       1.0000    0.11838   0.57318   0.65735   Biso      1.000     H          0.130647  
         H29       1.0000    0.07318   0.88162   0.40735   Biso      1.000     H          0.13064800000000001           
         H30       1.0000    0.38162   0.92682   0.15735   Biso      1.000     H          0.130647  
         H31       1.0000    0.88162   0.07318   0.59265   Biso      1.000     H          0.130631  
         H32       1.0000    0.57318   0.38162   0.90735   Biso      1.000     H          0.130631  
         O1        1.0000    0.25000   0.75170   0.87500   Biso      1.000     O          -1.01381  
         O2        1.0000    0.89895   0.28981   0.99186   Biso      1.000     O          -0.613753           
         O3        1.0000    0.87972   0.38135   0.35910   Biso      1.000     O          -0.5553279999999999           
         O4        1.0000    0.78981   0.39895   0.50814   Biso      1.000     O          -0.61375  
         O5        1.0000    0.37972   0.88135   0.85910   Biso      1.000     O          -0.555345           
         O6        1.0000    0.28981   0.89895   0.00814   Biso      1.000     O          -0.6137670000000001           
         O7        1.0000    0.62028   0.11865   0.85910   Biso      1.000     O          -0.555326           
         O8        1.0000    0.21019   0.60105   0.50814   Biso      1.000     O          -0.613768           
         O9        1.0000    0.75000   0.25170   0.37500   Biso      1.000     O          -1.0138040000000001           
         O10       1.0000    0.71019   0.10105   0.00814   Biso      1.000     O          -0.613751           
         O11       1.0000    0.38135   0.62028   0.60910   Biso      1.000     O          -0.555347           
         O12       1.0000    0.39895   0.71019   0.75814   Biso      1.000     O          -0.613762           
         O13       1.0000    0.88135   0.12028   0.10910   Biso      1.000     O          -0.555325           
         O14       1.0000    0.89895   0.21019   0.25814   Biso      1.000     O          -0.6137520000000001           
         O15       1.0000    0.11865   0.87972   0.10910   Biso      1.000     O          -0.555347           
         O16       1.0000    0.10105   0.78981   0.25814   Biso      1.000     O          -0.613762           
         O17       1.0000    0.61865   0.37972   0.60910   Biso      1.000     O          -0.555323           
         O18       1.0000    0.12028   0.61865   0.35910   Biso      1.000     O          -0.555346           
         O19       1.0000    0.88135   0.37972   0.14090   Biso      1.000     O          -0.555325           
         O20       1.0000    0.71019   0.39895   0.24186   Biso      1.000     O          -0.613753           
         O21       1.0000    0.37972   0.61865   0.39090   Biso      1.000     O          -0.555349           
         O22       1.0000    0.62028   0.38135   0.39090   Biso      1.000     O          -0.555325           
         O23       1.0000    0.28981   0.60105   0.24186   Biso      1.000     O          -0.613762           
         O24       1.0000    0.87972   0.11865   0.89090   Biso      1.000     O          -0.555325           
         O25       1.0000    0.78981   0.10105   0.74186   Biso      1.000     O          -0.613751           
         O26       1.0000    0.21019   0.89895   0.74186   Biso      1.000     O          -0.613761           
         O27       1.0000    0.12028   0.88135   0.89090   Biso      1.000     O          -0.555349           
         O28       1.0000    0.11865   0.62028   0.14090   Biso      1.000     O          -0.555345           
         O29       1.0000    0.10105   0.71019   0.99186   Biso      1.000     O          -0.6137670000000001           
         O30       1.0000    0.61865   0.12028   0.64090   Biso      1.000     O          -0.555325           
         O31       1.0000    0.25000   0.74830   0.37500   Biso      1.000     O          -1.01381  
         O32       1.0000    0.60105   0.28981   0.75814   Biso      1.000     O          -0.613751           
         O33       1.0000    0.74830   0.25000   0.62500   Biso      1.000     O          -1.013807           
         O34       1.0000    0.60105   0.21019   0.49186   Biso      1.000     O          -0.61375  
         O35       1.0000    0.24830   0.75000   0.12500   Biso      1.000     O          -1.0138129999999999           
         O36       1.0000    0.75170   0.25000   0.12500   Biso      1.000     O          -1.013811           
         O37       1.0000    0.38135   0.87972   0.64090   Biso      1.000     O          -0.555345           
         O38       1.0000    0.25170   0.75000   0.62500   Biso      1.000     O          -1.0138120000000002           
         O39       1.0000    0.39895   0.78981   0.49186   Biso      1.000     O          -0.6137670000000001           
         O40       1.0000    0.75000   0.24830   0.87500   Biso      1.000     O          -1.0138049999999998           
         V1        1.0000    0.69057   0.19057   0.75000   Biso      1.000     V          1.6659599999999999  
         V2        1.0000    0.80943   0.30943   0.25000   Biso      1.000     V          1.665966  
         V3        1.0000    0.80943   0.19057   0.00000   Biso      1.000     V          1.6659560000000002  
         V4        1.0000    0.19057   0.80943   0.00000   Biso      1.000     V          1.665861  
         V5        1.0000    0.69057   0.30943   0.50000   Biso      1.000     V          1.665948  
         V6        1.0000    0.30943   0.80943   0.75000   Biso      1.000     V          1.665836  
         V7        1.0000    0.19057   0.69057   0.25000   Biso      1.000     V          1.665836  
         V8        1.0000    0.30943   0.69057   0.50000   Biso      1.000     V          1.665861 