
##########################################################################
#               Crystallographic Information Format file
#               Produced by PyCifRW module
#
#  This is a CIF file.  CIF has been adopted by the International
#  Union of Crystallography as the standard for data archiving and
#  transmission.
#
#  For information on this file format, follow the CIF links at
#  http://www.iucr.org
##########################################################################

data_image0

_cell_length_a                          15.1236
_cell_length_b                          15.1236
_cell_length_c                          12.042
_cell_angle_alpha                       90
_cell_angle_beta                        90
_cell_angle_gamma                       90
_symmetry_space_group_name_H-M          'P 1'
_symmetry_int_tables_number             1
loop_
  _symmetry_equiv_pos_as_xyz
         'x, y, z' 
loop_
  _atom_site_label
  _atom_site_occupancy
  _atom_site_fract_x
  _atom_site_fract_y
  _atom_site_fract_z
  _atom_site_thermal_displace_type
  _atom_site_B_iso_or_equiv
  _atom_site_type_symbol
  _atom_site_charge
         C1        1.0000    0.43256   0.54626   0.12063   Biso      1.000     C          -0.174086           
         C2        1.0000    0.06744   0.54626   0.62937   Biso      1.000     C          -0.174085           
         C3        1.0000    0.93307   0.04299   0.73960   Biso      1.000     C          -0.017756           
         C4        1.0000    0.00000   0.00000   0.43619   Biso      1.000     C          0.083138  
         C5        1.0000    0.00000   0.00000   0.20380   Biso      1.000     C          -0.119801           
         C6        1.0000    0.86026   0.40997   0.45240   Biso      1.000     C          0.642885  
         C7        1.0000    0.93307   0.45701   0.51040   Biso      1.000     C          -0.017755           
         C8        1.0000    0.93256   0.45374   0.62937   Biso      1.000     C          -0.17408800000000002          
         C9        1.0000    0.43307   0.54299   0.23960   Biso      1.000     C          -0.017754           
         C10       1.0000    0.50000   0.50000   0.93619   Biso      1.000     C          0.083138  
         C11       1.0000    0.50000   0.50000   0.70380   Biso      1.000     C          -0.119801           
         C12       1.0000    0.36026   0.90997   0.95240   Biso      1.000     C          0.642881  
         C13       1.0000    0.43307   0.95701   0.01040   Biso      1.000     C          -0.017753           
         C14       1.0000    0.43256   0.95374   0.12937   Biso      1.000     C          -0.174086           
         C15       1.0000    0.86026   0.09003   0.79760   Biso      1.000     C          0.642885  
         C16       1.0000    0.56744   0.45374   0.12063   Biso      1.000     C          -0.17408800000000002          
         C17       1.0000    0.90997   0.36026   0.04760   Biso      1.000     C          0.642885  
         C18       1.0000    0.95701   0.43307   0.98960   Biso      1.000     C          -0.017755           
         C19       1.0000    0.95374   0.43256   0.87063   Biso      1.000     C          -0.17408800000000002          
         C20       1.0000    0.50000   0.50000   0.06381   Biso      1.000     C          0.083136  
         C21       1.0000    0.04626   0.56744   0.87063   Biso      1.000     C          -0.174085           
         C22       1.0000    0.04299   0.56693   0.98960   Biso      1.000     C          -0.017754           
         C23       1.0000    0.40997   0.86026   0.54760   Biso      1.000     C          0.642881  
         C24       1.0000    0.45701   0.93307   0.48960   Biso      1.000     C          -0.017753           
         C25       1.0000    0.45374   0.93256   0.37063   Biso      1.000     C          -0.174086           
         C26       1.0000    0.09003   0.63974   0.04760   Biso      1.000     C          0.642882  
         C27       1.0000    0.13974   0.90997   0.79760   Biso      1.000     C          0.642881  
         C28       1.0000    0.06693   0.95701   0.73960   Biso      1.000     C          -0.017753           
         C29       1.0000    0.59003   0.13974   0.54760   Biso      1.000     C          0.642885  
         C30       1.0000    0.54299   0.06693   0.48960   Biso      1.000     C          -0.017756           
         C31       1.0000    0.06693   0.54299   0.51040   Biso      1.000     C          -0.017754           
         C32       1.0000    0.54626   0.06744   0.37063   Biso      1.000     C          -0.17408800000000002          
         C33       1.0000    0.13974   0.59003   0.45240   Biso      1.000     C          0.642881  
         C34       1.0000    0.50000   0.00000   0.18619   Biso      1.000     C          0.083137  
         C35       1.0000    0.50000   0.50000   0.29620   Biso      1.000     C          -0.1198   
         C36       1.0000    0.59003   0.36026   0.70240   Biso      1.000     C          0.642886  
         C37       1.0000    0.54299   0.43307   0.76040   Biso      1.000     C          -0.017755           
         C38       1.0000    0.54626   0.43256   0.87937   Biso      1.000     C          -0.17409000000000002          
         C39       1.0000    0.36026   0.59003   0.29760   Biso      1.000     C          0.642881  
         C40       1.0000    0.00000   0.00000   0.56381   Biso      1.000     C          0.083137  
         C41       1.0000    0.00000   0.00000   0.79620   Biso      1.000     C          -0.1198   
         C42       1.0000    0.09003   0.86026   0.20240   Biso      1.000     C          0.642881  
         C43       1.0000    0.04299   0.93307   0.26040   Biso      1.000     C          -0.017752           
         C44       1.0000    0.04626   0.93256   0.37937   Biso      1.000     C          -0.174087           
         C45       1.0000    0.50000   0.00000   0.31381   Biso      1.000     C          0.083136  
         C46       1.0000    0.50000   0.00000   0.54620   Biso      1.000     C          -0.1198   
         C47       1.0000    0.90997   0.13974   0.20240   Biso      1.000     C          0.642886  
         C48       1.0000    0.50000   0.00000   0.95380   Biso      1.000     C          -0.1198   
         C49       1.0000    0.06744   0.95374   0.62063   Biso      1.000     C          -0.174087           
         C50       1.0000    0.95374   0.06744   0.37937   Biso      1.000     C          -0.17408900000000002          
         C51       1.0000    0.93256   0.04626   0.62063   Biso      1.000     C          -0.17409000000000002          
         C52       1.0000    0.56744   0.04626   0.12937   Biso      1.000     C          -0.17408900000000002          
         C53       1.0000    0.56693   0.04299   0.01040   Biso      1.000     C          -0.017755           
         C54       1.0000    0.63974   0.09003   0.95240   Biso      1.000     C          0.642886  
         C55       1.0000    0.00000   0.50000   0.45380   Biso      1.000     C          -0.119799           
         C56       1.0000    0.00000   0.50000   0.68619   Biso      1.000     C          0.083136  
         C57       1.0000    0.95701   0.06693   0.26040   Biso      1.000     C          -0.017755           
         C58       1.0000    0.56693   0.45701   0.23960   Biso      1.000     C          -0.017755           
         C59       1.0000    0.45701   0.56693   0.76040   Biso      1.000     C          -0.017753           
         C60       1.0000    0.40997   0.63974   0.70240   Biso      1.000     C          0.642882  
         C61       1.0000    0.00000   0.50000   0.04620   Biso      1.000     C          -0.119799           
         C62       1.0000    0.00000   0.50000   0.81381   Biso      1.000     C          0.083136  
         C63       1.0000    0.63974   0.40997   0.29760   Biso      1.000     C          0.642886  
         C64       1.0000    0.45374   0.56744   0.87937   Biso      1.000     C          -0.174087           
         H1        1.0000    0.38162   0.57318   0.09265   Biso      1.000     H          0.130597  
         H2        1.0000    0.61838   0.42682   0.09265   Biso      1.000     H          0.13059500000000002           
         H3        1.0000    0.07318   0.61838   0.84265   Biso      1.000     H          0.130597  
         H4        1.0000    0.80600   0.25000   0.62500   Biso      1.000     H          0.43638000000000005           
         H5        1.0000    0.30600   0.75000   0.12500   Biso      1.000     H          0.43637700000000007           
         H6        1.0000    0.69400   0.25000   0.12500   Biso      1.000     H          0.436379  
         H7        1.0000    0.19400   0.75000   0.62500   Biso      1.000     H          0.43637600000000004           
         H8        1.0000    0.75000   0.30600   0.87500   Biso      1.000     H          0.43638000000000005           
         H9        1.0000    0.25000   0.80600   0.37500   Biso      1.000     H          0.43637700000000007           
         H10       1.0000    0.75000   0.19400   0.37500   Biso      1.000     H          0.43638000000000005           
         H11       1.0000    0.25000   0.69400   0.87500   Biso      1.000     H          0.43637700000000007           
         H12       1.0000    0.00000   0.00000   0.12660   Biso      1.000     H          0.13614500000000002           
         H13       1.0000    0.50000   0.00000   0.87660   Biso      1.000     H          0.13614500000000002           
         H14       1.0000    0.00000   0.50000   0.37660   Biso      1.000     H          0.13614500000000002           
         H15       1.0000    0.00000   0.50000   0.12340   Biso      1.000     H          0.13614500000000002           
         H16       1.0000    0.50000   0.00000   0.62340   Biso      1.000     H          0.13614500000000002           
         H17       1.0000    0.00000   0.00000   0.87340   Biso      1.000     H          0.13614500000000002           
         H18       1.0000    0.11838   0.92682   0.59265   Biso      1.000     H          0.130597  
         H19       1.0000    0.50000   0.50000   0.62660   Biso      1.000     H          0.13614500000000002           
         H20       1.0000    0.50000   0.50000   0.37340   Biso      1.000     H          0.13614500000000002           
         H21       1.0000    0.92682   0.38162   0.84265   Biso      1.000     H          0.13059500000000002           
         H22       1.0000    0.42682   0.61838   0.90735   Biso      1.000     H          0.130597  
         H23       1.0000    0.88162   0.42682   0.65735   Biso      1.000     H          0.13059500000000002           
         H24       1.0000    0.42682   0.88162   0.34265   Biso      1.000     H          0.130597  
         H25       1.0000    0.57318   0.11838   0.34265   Biso      1.000     H          0.130596  
         H26       1.0000    0.92682   0.11838   0.40735   Biso      1.000     H          0.13059500000000002           
         H27       1.0000    0.61838   0.07318   0.15735   Biso      1.000     H          0.13059500000000002           
         H28       1.0000    0.11838   0.57318   0.65735   Biso      1.000     H          0.130597  
         H29       1.0000    0.07318   0.88162   0.40735   Biso      1.000     H          0.130597  
         H30       1.0000    0.38162   0.92682   0.15735   Biso      1.000     H          0.130597  
         H31       1.0000    0.88162   0.07318   0.59265   Biso      1.000     H          0.130596  
         H32       1.0000    0.57318   0.38162   0.90735   Biso      1.000     H          0.130596  
         O1        1.0000    0.25000   0.75375   0.87500   Biso      1.000     O          -1.0006959999999998           
         O2        1.0000    0.89849   0.28984   0.99324   Biso      1.000     O          -0.621991           
         O3        1.0000    0.87927   0.38260   0.35963   Biso      1.000     O          -0.570529           
         O4        1.0000    0.78984   0.39849   0.50676   Biso      1.000     O          -0.6219899999999999           
         O5        1.0000    0.37927   0.88260   0.85963   Biso      1.000     O          -0.57053  
         O6        1.0000    0.28984   0.89849   0.00676   Biso      1.000     O          -0.621992           
         O7        1.0000    0.62073   0.11740   0.85963   Biso      1.000     O          -0.5705279999999999           
         O8        1.0000    0.21016   0.60151   0.50676   Biso      1.000     O          -0.621992           
         O9        1.0000    0.75000   0.25375   0.37500   Biso      1.000     O          -1.0006959999999998           
         O10       1.0000    0.71016   0.10151   0.00676   Biso      1.000     O          -0.6219899999999999           
         O11       1.0000    0.38260   0.62073   0.60963   Biso      1.000     O          -0.570529           
         O12       1.0000    0.39849   0.71016   0.75676   Biso      1.000     O          -0.621992           
         O13       1.0000    0.88260   0.12073   0.10963   Biso      1.000     O          -0.570527           
         O14       1.0000    0.89849   0.21016   0.25676   Biso      1.000     O          -0.621991           
         O15       1.0000    0.11740   0.87927   0.10963   Biso      1.000     O          -0.570529           
         O16       1.0000    0.10151   0.78984   0.25676   Biso      1.000     O          -0.621992           
         O17       1.0000    0.61740   0.37927   0.60963   Biso      1.000     O          -0.570527           
         O18       1.0000    0.12073   0.61740   0.35963   Biso      1.000     O          -0.57053  
         O19       1.0000    0.88260   0.37927   0.14037   Biso      1.000     O          -0.5705279999999999           
         O20       1.0000    0.71016   0.39849   0.24324   Biso      1.000     O          -0.621991           
         O21       1.0000    0.37927   0.61740   0.39037   Biso      1.000     O          -0.57053  
         O22       1.0000    0.62073   0.38260   0.39037   Biso      1.000     O          -0.5705279999999999           
         O23       1.0000    0.28984   0.60151   0.24324   Biso      1.000     O          -0.621992           
         O24       1.0000    0.87927   0.11740   0.89037   Biso      1.000     O          -0.5705279999999999           
         O25       1.0000    0.78984   0.10151   0.74324   Biso      1.000     O          -0.621991           
         O26       1.0000    0.21016   0.89849   0.74324   Biso      1.000     O          -0.621992           
         O27       1.0000    0.12073   0.88260   0.89037   Biso      1.000     O          -0.57053  
         O28       1.0000    0.11740   0.62073   0.14037   Biso      1.000     O          -0.5705279999999999           
         O29       1.0000    0.10151   0.71016   0.99324   Biso      1.000     O          -0.621992           
         O30       1.0000    0.61740   0.12073   0.64037   Biso      1.000     O          -0.570527           
         O31       1.0000    0.25000   0.74625   0.37500   Biso      1.000     O          -1.0006959999999998           
         O32       1.0000    0.60151   0.28984   0.75676   Biso      1.000     O          -0.621991           
         O33       1.0000    0.74625   0.25000   0.62500   Biso      1.000     O          -1.0006979999999999           
         O34       1.0000    0.60151   0.21016   0.49324   Biso      1.000     O          -0.6219899999999999           
         O35       1.0000    0.24625   0.75000   0.12500   Biso      1.000     O          -1.000699           
         O36       1.0000    0.75375   0.25000   0.12500   Biso      1.000     O          -1.000699           
         O37       1.0000    0.38260   0.87927   0.64037   Biso      1.000     O          -0.5705279999999999           
         O38       1.0000    0.25375   0.75000   0.62500   Biso      1.000     O          -1.000699           
         O39       1.0000    0.39849   0.78984   0.49324   Biso      1.000     O          -0.621992           
         O40       1.0000    0.75000   0.24625   0.87500   Biso      1.000     O          -1.0006950000000001           
         V1        1.0000    0.69080   0.19080   0.75000   Biso      1.000     V          1.686606  
         V2        1.0000    0.80920   0.30920   0.25000   Biso      1.000     V          1.68661   
         V3        1.0000    0.80920   0.19080   0.00000   Biso      1.000     V          1.686606  
         V4        1.0000    0.19080   0.80920   0.00000   Biso      1.000     V          1.6865970000000001  
         V5        1.0000    0.69080   0.30920   0.50000   Biso      1.000     V          1.686605  
         V6        1.0000    0.30920   0.80920   0.75000   Biso      1.000     V          1.686594  
         V7        1.0000    0.19080   0.69080   0.25000   Biso      1.000     V          1.686596  
         V8        1.0000    0.30920   0.69080   0.50000   Biso      1.000     V          1.686596 