
##########################################################################
#               Crystallographic Information Format file
#               Produced by PyCifRW module
#
#  This is a CIF file.  CIF has been adopted by the International
#  Union of Crystallography as the standard for data archiving and
#  transmission.
#
#  For information on this file format, follow the CIF links at
#  http://www.iucr.org
##########################################################################

data_image0

_cell_length_a                          15.1133
_cell_length_b                          15.1133
_cell_length_c                          12.0327
_cell_angle_alpha                       90
_cell_angle_beta                        90
_cell_angle_gamma                       90
_symmetry_space_group_name_H-M          'P 1'
_symmetry_int_tables_number             1
loop_
  _symmetry_equiv_pos_as_xyz
         'x, y, z' 
loop_
  _atom_site_label
  _atom_site_occupancy
  _atom_site_fract_x
  _atom_site_fract_y
  _atom_site_fract_z
  _atom_site_thermal_displace_type
  _atom_site_B_iso_or_equiv
  _atom_site_type_symbol
  _atom_site_charge
         C1        1.0000    0.43276   0.54678   0.12082   Biso      1.000     C          -0.176739           
         C2        1.0000    0.06724   0.54678   0.62918   Biso      1.000     C          -0.176739           
         C3        1.0000    0.93316   0.04327   0.73983   Biso      1.000     C          -0.017905           
         C4        1.0000    0.00000   0.00000   0.43620   Biso      1.000     C          0.083422  
         C5        1.0000    0.00000   0.00000   0.20333   Biso      1.000     C          -0.117257           
         C6        1.0000    0.86045   0.40877   0.45242   Biso      1.000     C          0.639205  
         C7        1.0000    0.93316   0.45673   0.51017   Biso      1.000     C          -0.017904           
         C8        1.0000    0.93276   0.45322   0.62918   Biso      1.000     C          -0.176732           
         C9        1.0000    0.43316   0.54327   0.23983   Biso      1.000     C          -0.017915           
         C10       1.0000    0.50000   0.50000   0.93620   Biso      1.000     C          0.083422  
         C11       1.0000    0.50000   0.50000   0.70333   Biso      1.000     C          -0.117257           
         C12       1.0000    0.36045   0.90877   0.95242   Biso      1.000     C          0.639217  
         C13       1.0000    0.43316   0.95673   0.01017   Biso      1.000     C          -0.017914           
         C14       1.0000    0.43276   0.95322   0.12918   Biso      1.000     C          -0.17674  
         C15       1.0000    0.86045   0.09123   0.79758   Biso      1.000     C          0.639205  
         C16       1.0000    0.56724   0.45322   0.12082   Biso      1.000     C          -0.176732           
         C17       1.0000    0.90877   0.36045   0.04758   Biso      1.000     C          0.639205  
         C18       1.0000    0.95673   0.43316   0.98983   Biso      1.000     C          -0.017906000000000002         
         C19       1.0000    0.95322   0.43276   0.87082   Biso      1.000     C          -0.176732           
         C20       1.0000    0.50000   0.50000   0.06380   Biso      1.000     C          0.08342000000000001           
         C21       1.0000    0.04678   0.56724   0.87082   Biso      1.000     C          -0.176739           
         C22       1.0000    0.04327   0.56684   0.98983   Biso      1.000     C          -0.017915           
         C23       1.0000    0.40877   0.86045   0.54758   Biso      1.000     C          0.639219  
         C24       1.0000    0.45673   0.93316   0.48983   Biso      1.000     C          -0.017914           
         C25       1.0000    0.45322   0.93276   0.37082   Biso      1.000     C          -0.176739           
         C26       1.0000    0.09123   0.63955   0.04758   Biso      1.000     C          0.6392180000000001  
         C27       1.0000    0.13955   0.90877   0.79758   Biso      1.000     C          0.6392180000000001  
         C28       1.0000    0.06684   0.95673   0.73983   Biso      1.000     C          -0.017914           
         C29       1.0000    0.59123   0.13955   0.54758   Biso      1.000     C          0.639206  
         C30       1.0000    0.54327   0.06684   0.48983   Biso      1.000     C          -0.017905           
         C31       1.0000    0.06684   0.54327   0.51017   Biso      1.000     C          -0.017915           
         C32       1.0000    0.54678   0.06724   0.37082   Biso      1.000     C          -0.176731           
         C33       1.0000    0.13955   0.59123   0.45242   Biso      1.000     C          0.6392180000000001  
         C34       1.0000    0.50000   0.00000   0.18620   Biso      1.000     C          0.08342100000000001           
         C35       1.0000    0.50000   0.50000   0.29667   Biso      1.000     C          -0.117257           
         C36       1.0000    0.59123   0.36045   0.70242   Biso      1.000     C          0.639206  
         C37       1.0000    0.54327   0.43316   0.76017   Biso      1.000     C          -0.017905           
         C38       1.0000    0.54678   0.43276   0.87918   Biso      1.000     C          -0.176733           
         C39       1.0000    0.36045   0.59123   0.29758   Biso      1.000     C          0.6392180000000001  
         C40       1.0000    0.00000   0.00000   0.56380   Biso      1.000     C          0.08342100000000001           
         C41       1.0000    0.00000   0.00000   0.79667   Biso      1.000     C          -0.117257           
         C42       1.0000    0.09123   0.86045   0.20242   Biso      1.000     C          0.639217  
         C43       1.0000    0.04327   0.93316   0.26017   Biso      1.000     C          -0.017914           
         C44       1.0000    0.04678   0.93276   0.37918   Biso      1.000     C          -0.176741           
         C45       1.0000    0.50000   0.00000   0.31380   Biso      1.000     C          0.08342000000000001           
         C46       1.0000    0.50000   0.00000   0.54667   Biso      1.000     C          -0.117257           
         C47       1.0000    0.90877   0.13955   0.20242   Biso      1.000     C          0.639206  
         C48       1.0000    0.50000   0.00000   0.95333   Biso      1.000     C          -0.117257           
         C49       1.0000    0.06724   0.95322   0.62082   Biso      1.000     C          -0.176741           
         C50       1.0000    0.95322   0.06724   0.37918   Biso      1.000     C          -0.176733           
         C51       1.0000    0.93276   0.04678   0.62082   Biso      1.000     C          -0.176733           
         C52       1.0000    0.56724   0.04678   0.12918   Biso      1.000     C          -0.176733           
         C53       1.0000    0.56684   0.04327   0.01017   Biso      1.000     C          -0.017906000000000002         
         C54       1.0000    0.63955   0.09123   0.95242   Biso      1.000     C          0.639206  
         C55       1.0000    0.00000   0.50000   0.45333   Biso      1.000     C          -0.117257           
         C56       1.0000    0.00000   0.50000   0.68620   Biso      1.000     C          0.08342000000000001           
         C57       1.0000    0.95673   0.06684   0.26017   Biso      1.000     C          -0.017905           
         C58       1.0000    0.56684   0.45673   0.23983   Biso      1.000     C          -0.017906000000000002         
         C59       1.0000    0.45673   0.56684   0.76017   Biso      1.000     C          -0.017915           
         C60       1.0000    0.40877   0.63955   0.70242   Biso      1.000     C          0.63922   
         C61       1.0000    0.00000   0.50000   0.04667   Biso      1.000     C          -0.117257           
         C62       1.0000    0.00000   0.50000   0.81380   Biso      1.000     C          0.08342000000000001           
         C63       1.0000    0.63955   0.40877   0.29758   Biso      1.000     C          0.639206  
         C64       1.0000    0.45322   0.56724   0.87918   Biso      1.000     C          -0.176741           
         H1        1.0000    0.38162   0.57318   0.09265   Biso      1.000     H          0.130245  
         H2        1.0000    0.61838   0.42682   0.09265   Biso      1.000     H          0.130249  
         H3        1.0000    0.07318   0.61838   0.84265   Biso      1.000     H          0.130245  
         H4        1.0000    0.80600   0.25000   0.62500   Biso      1.000     H          0.428324  
         H5        1.0000    0.30600   0.75000   0.12500   Biso      1.000     H          0.428335  
         H6        1.0000    0.69400   0.25000   0.12500   Biso      1.000     H          0.428324  
         H7        1.0000    0.19400   0.75000   0.62500   Biso      1.000     H          0.428334  
         H8        1.0000    0.75000   0.30600   0.87500   Biso      1.000     H          0.428325  
         H9        1.0000    0.25000   0.80600   0.37500   Biso      1.000     H          0.428335  
         H10       1.0000    0.75000   0.19400   0.37500   Biso      1.000     H          0.428324  
         H11       1.0000    0.25000   0.69400   0.87500   Biso      1.000     H          0.428335  
         H12       1.0000    0.00000   0.00000   0.12600   Biso      1.000     H          0.136801  
         H13       1.0000    0.50000   0.00000   0.87600   Biso      1.000     H          0.136802  
         H14       1.0000    0.00000   0.50000   0.37600   Biso      1.000     H          0.136802  
         H15       1.0000    0.00000   0.50000   0.12400   Biso      1.000     H          0.136802  
         H16       1.0000    0.50000   0.00000   0.62400   Biso      1.000     H          0.136802  
         H17       1.0000    0.00000   0.00000   0.87400   Biso      1.000     H          0.136802  
         H18       1.0000    0.11838   0.92682   0.59265   Biso      1.000     H          0.130245  
         H19       1.0000    0.50000   0.50000   0.62600   Biso      1.000     H          0.136802  
         H20       1.0000    0.50000   0.50000   0.37400   Biso      1.000     H          0.136802  
         H21       1.0000    0.92682   0.38162   0.84265   Biso      1.000     H          0.130249  
         H22       1.0000    0.42682   0.61838   0.90735   Biso      1.000     H          0.130245  
         H23       1.0000    0.88162   0.42682   0.65735   Biso      1.000     H          0.130249  
         H24       1.0000    0.42682   0.88162   0.34265   Biso      1.000     H          0.130245  
         H25       1.0000    0.57318   0.11838   0.34265   Biso      1.000     H          0.130249  
         H26       1.0000    0.92682   0.11838   0.40735   Biso      1.000     H          0.130249  
         H27       1.0000    0.61838   0.07318   0.15735   Biso      1.000     H          0.130249  
         H28       1.0000    0.11838   0.57318   0.65735   Biso      1.000     H          0.130245  
         H29       1.0000    0.07318   0.88162   0.40735   Biso      1.000     H          0.130245  
         H30       1.0000    0.38162   0.92682   0.15735   Biso      1.000     H          0.130245  
         H31       1.0000    0.88162   0.07318   0.59265   Biso      1.000     H          0.130249  
         H32       1.0000    0.57318   0.38162   0.90735   Biso      1.000     H          0.130249  
         O1        1.0000    0.25000   0.75530   0.87500   Biso      1.000     O          -0.9941840000000001           
         O2        1.0000    0.89912   0.28965   0.99401   Biso      1.000     O          -0.616589           
         O3        1.0000    0.87995   0.38197   0.35896   Biso      1.000     O          -0.568079           
         O4        1.0000    0.78965   0.39912   0.50599   Biso      1.000     O          -0.616591           
         O5        1.0000    0.37995   0.88197   0.85896   Biso      1.000     O          -0.5680729999999999           
         O6        1.0000    0.28965   0.89912   0.00599   Biso      1.000     O          -0.616586           
         O7        1.0000    0.62005   0.11803   0.85896   Biso      1.000     O          -0.568078           
         O8        1.0000    0.21035   0.60088   0.50599   Biso      1.000     O          -0.616588           
         O9        1.0000    0.75000   0.25530   0.37500   Biso      1.000     O          -0.9941840000000001           
         O10       1.0000    0.71035   0.10088   0.00599   Biso      1.000     O          -0.616589           
         O11       1.0000    0.38197   0.62005   0.60896   Biso      1.000     O          -0.568072           
         O12       1.0000    0.39912   0.71035   0.75599   Biso      1.000     O          -0.616589           
         O13       1.0000    0.88197   0.12005   0.10896   Biso      1.000     O          -0.568077           
         O14       1.0000    0.89912   0.21035   0.25599   Biso      1.000     O          -0.61659  
         O15       1.0000    0.11803   0.87995   0.10896   Biso      1.000     O          -0.568071           
         O16       1.0000    0.10088   0.78965   0.25599   Biso      1.000     O          -0.616587           
         O17       1.0000    0.61803   0.37995   0.60896   Biso      1.000     O          -0.568078           
         O18       1.0000    0.12005   0.61803   0.35896   Biso      1.000     O          -0.5680729999999999           
         O19       1.0000    0.88197   0.37995   0.14104   Biso      1.000     O          -0.568076           
         O20       1.0000    0.71035   0.39912   0.24401   Biso      1.000     O          -0.61659  
         O21       1.0000    0.37995   0.61803   0.39104   Biso      1.000     O          -0.5680729999999999           
         O22       1.0000    0.62005   0.38197   0.39104   Biso      1.000     O          -0.568078           
         O23       1.0000    0.28965   0.60088   0.24401   Biso      1.000     O          -0.616588           
         O24       1.0000    0.87995   0.11803   0.89104   Biso      1.000     O          -0.568078           
         O25       1.0000    0.78965   0.10088   0.74401   Biso      1.000     O          -0.61659  
         O26       1.0000    0.21035   0.89912   0.74401   Biso      1.000     O          -0.616589           
         O27       1.0000    0.12005   0.88197   0.89104   Biso      1.000     O          -0.5680729999999999           
         O28       1.0000    0.11803   0.62005   0.14104   Biso      1.000     O          -0.568072           
         O29       1.0000    0.10088   0.71035   0.99401   Biso      1.000     O          -0.616587           
         O30       1.0000    0.61803   0.12005   0.64104   Biso      1.000     O          -0.568077           
         O31       1.0000    0.25000   0.74470   0.37500   Biso      1.000     O          -0.9941840000000001           
         O32       1.0000    0.60088   0.28965   0.75599   Biso      1.000     O          -0.61659  
         O33       1.0000    0.74470   0.25000   0.62500   Biso      1.000     O          -0.994187           
         O34       1.0000    0.60088   0.21035   0.49401   Biso      1.000     O          -0.616591           
         O35       1.0000    0.24470   0.75000   0.12500   Biso      1.000     O          -0.994187           
         O36       1.0000    0.75530   0.25000   0.12500   Biso      1.000     O          -0.994187           
         O37       1.0000    0.38197   0.87995   0.64104   Biso      1.000     O          -0.5680729999999999           
         O38       1.0000    0.25530   0.75000   0.62500   Biso      1.000     O          -0.994187           
         O39       1.0000    0.39912   0.78965   0.49401   Biso      1.000     O          -0.616588           
         O40       1.0000    0.75000   0.24470   0.87500   Biso      1.000     O          -0.994185           
         V1        1.0000    0.69123   0.19123   0.75000   Biso      1.000     V          1.682575  
         V2        1.0000    0.80877   0.30877   0.25000   Biso      1.000     V          1.682575  
         V3        1.0000    0.80877   0.19123   0.00000   Biso      1.000     V          1.6825740000000002  
         V4        1.0000    0.19123   0.80877   0.00000   Biso      1.000     V          1.682608  
         V5        1.0000    0.69123   0.30877   0.50000   Biso      1.000     V          1.682575  
         V6        1.0000    0.30877   0.80877   0.75000   Biso      1.000     V          1.68261   
         V7        1.0000    0.19123   0.69123   0.25000   Biso      1.000     V          1.68261   
         V8        1.0000    0.30877   0.69123   0.50000   Biso      1.000     V          1.682608 