
##########################################################################
#               Crystallographic Information Format file
#               Produced by PyCifRW module
#
#  This is a CIF file.  CIF has been adopted by the International
#  Union of Crystallography as the standard for data archiving and
#  transmission.
#
#  For information on this file format, follow the CIF links at
#  http://www.iucr.org
##########################################################################

data_image0

_cell_length_a                          15.0955
_cell_length_b                          15.0955
_cell_length_c                          12.0175
_cell_angle_alpha                       90
_cell_angle_beta                        90
_cell_angle_gamma                       90
_symmetry_space_group_name_H-M          'P 1'
_symmetry_int_tables_number             1
loop_
  _symmetry_equiv_pos_as_xyz
         'x, y, z' 
loop_
  _atom_site_label
  _atom_site_occupancy
  _atom_site_fract_x
  _atom_site_fract_y
  _atom_site_fract_z
  _atom_site_thermal_displace_type
  _atom_site_B_iso_or_equiv
  _atom_site_type_symbol
  _atom_site_charge
         C1        1.0000    0.43320   0.54760   0.12060   Biso      1.000     C          -0.1822   
         C2        1.0000    0.06680   0.54760   0.62940   Biso      1.000     C          -0.182199           
         C3        1.0000    0.93320   0.04340   0.73990   Biso      1.000     C          -0.019631           
         C4        1.0000    0.00000   0.00000   0.43620   Biso      1.000     C          0.086929  
         C5        1.0000    0.00000   0.00000   0.20330   Biso      1.000     C          -0.125334           
         C6        1.0000    0.86020   0.40780   0.45030   Biso      1.000     C          0.644457  
         C7        1.0000    0.93320   0.45660   0.51010   Biso      1.000     C          -0.019631           
         C8        1.0000    0.93320   0.45240   0.62940   Biso      1.000     C          -0.182198           
         C9        1.0000    0.43320   0.54340   0.23990   Biso      1.000     C          -0.019634           
         C10       1.0000    0.50000   0.50000   0.93620   Biso      1.000     C          0.086929  
         C11       1.0000    0.50000   0.50000   0.70330   Biso      1.000     C          -0.125334           
         C12       1.0000    0.36020   0.90780   0.95030   Biso      1.000     C          0.644459  
         C13       1.0000    0.43320   0.95660   0.01010   Biso      1.000     C          -0.019633           
         C14       1.0000    0.43320   0.95240   0.12940   Biso      1.000     C          -0.1822   
         C15       1.0000    0.86020   0.09220   0.79970   Biso      1.000     C          0.644457  
         C16       1.0000    0.56680   0.45240   0.12060   Biso      1.000     C          -0.182198           
         C17       1.0000    0.90780   0.36020   0.04970   Biso      1.000     C          0.644457  
         C18       1.0000    0.95660   0.43320   0.98990   Biso      1.000     C          -0.019631           
         C19       1.0000    0.95240   0.43320   0.87060   Biso      1.000     C          -0.182197           
         C20       1.0000    0.50000   0.50000   0.06380   Biso      1.000     C          0.086928  
         C21       1.0000    0.04760   0.56680   0.87060   Biso      1.000     C          -0.182199           
         C22       1.0000    0.04340   0.56680   0.98990   Biso      1.000     C          -0.019634           
         C23       1.0000    0.40780   0.86020   0.54970   Biso      1.000     C          0.64446   
         C24       1.0000    0.45660   0.93320   0.48990   Biso      1.000     C          -0.019633           
         C25       1.0000    0.45240   0.93320   0.37060   Biso      1.000     C          -0.182199           
         C26       1.0000    0.09220   0.63980   0.04970   Biso      1.000     C          0.64446   
         C27       1.0000    0.13980   0.90780   0.79970   Biso      1.000     C          0.644459  
         C28       1.0000    0.06680   0.95660   0.73990   Biso      1.000     C          -0.019633           
         C29       1.0000    0.59220   0.13980   0.54970   Biso      1.000     C          0.644458  
         C30       1.0000    0.54340   0.06680   0.48990   Biso      1.000     C          -0.019631           
         C31       1.0000    0.06680   0.54340   0.51010   Biso      1.000     C          -0.019633           
         C32       1.0000    0.54760   0.06680   0.37060   Biso      1.000     C          -0.182197           
         C33       1.0000    0.13980   0.59220   0.45030   Biso      1.000     C          0.644459  
         C34       1.0000    0.50000   0.00000   0.18620   Biso      1.000     C          0.086929  
         C35       1.0000    0.50000   0.50000   0.29670   Biso      1.000     C          -0.125334           
         C36       1.0000    0.59220   0.36020   0.70030   Biso      1.000     C          0.644457  
         C37       1.0000    0.54340   0.43320   0.76010   Biso      1.000     C          -0.019631           
         C38       1.0000    0.54760   0.43320   0.87940   Biso      1.000     C          -0.182198           
         C39       1.0000    0.36020   0.59220   0.29970   Biso      1.000     C          0.64446   
         C40       1.0000    0.00000   0.00000   0.56380   Biso      1.000     C          0.086929  
         C41       1.0000    0.00000   0.00000   0.79670   Biso      1.000     C          -0.125334           
         C42       1.0000    0.09220   0.86020   0.20030   Biso      1.000     C          0.64446   
         C43       1.0000    0.04340   0.93320   0.26010   Biso      1.000     C          -0.019633           
         C44       1.0000    0.04760   0.93320   0.37940   Biso      1.000     C          -0.182201           
         C45       1.0000    0.50000   0.00000   0.31380   Biso      1.000     C          0.086928  
         C46       1.0000    0.50000   0.00000   0.54670   Biso      1.000     C          -0.125334           
         C47       1.0000    0.90780   0.13980   0.20030   Biso      1.000     C          0.644457  
         C48       1.0000    0.50000   0.00000   0.95330   Biso      1.000     C          -0.125334           
         C49       1.0000    0.06680   0.95240   0.62060   Biso      1.000     C          -0.182201           
         C50       1.0000    0.95240   0.06680   0.37940   Biso      1.000     C          -0.182198           
         C51       1.0000    0.93320   0.04760   0.62060   Biso      1.000     C          -0.182199           
         C52       1.0000    0.56680   0.04760   0.12940   Biso      1.000     C          -0.182198           
         C53       1.0000    0.56680   0.04340   0.01010   Biso      1.000     C          -0.019632           
         C54       1.0000    0.63980   0.09220   0.95030   Biso      1.000     C          0.644458  
         C55       1.0000    0.00000   0.50000   0.45330   Biso      1.000     C          -0.125334           
         C56       1.0000    0.00000   0.50000   0.68620   Biso      1.000     C          0.086928  
         C57       1.0000    0.95660   0.06680   0.26010   Biso      1.000     C          -0.019632           
         C58       1.0000    0.56680   0.45660   0.23990   Biso      1.000     C          -0.019632           
         C59       1.0000    0.45660   0.56680   0.76010   Biso      1.000     C          -0.019633           
         C60       1.0000    0.40780   0.63980   0.70030   Biso      1.000     C          0.64446   
         C61       1.0000    0.00000   0.50000   0.04670   Biso      1.000     C          -0.125334           
         C62       1.0000    0.00000   0.50000   0.81380   Biso      1.000     C          0.086928  
         C63       1.0000    0.63980   0.40780   0.29970   Biso      1.000     C          0.644458  
         C64       1.0000    0.45240   0.56680   0.87940   Biso      1.000     C          -0.1822   
         H1        1.0000    0.38162   0.57318   0.09265   Biso      1.000     H          0.130678  
         H2        1.0000    0.61838   0.42682   0.09265   Biso      1.000     H          0.13068   
         H3        1.0000    0.07318   0.61838   0.84265   Biso      1.000     H          0.130678  
         H4        1.0000    0.80600   0.25000   0.62500   Biso      1.000     H          0.43768   
         H5        1.0000    0.30600   0.75000   0.12500   Biso      1.000     H          0.437683  
         H6        1.0000    0.69400   0.25000   0.12500   Biso      1.000     H          0.43768   
         H7        1.0000    0.19400   0.75000   0.62500   Biso      1.000     H          0.437683  
         H8        1.0000    0.75000   0.30600   0.87500   Biso      1.000     H          0.43768   
         H9        1.0000    0.25000   0.80600   0.37500   Biso      1.000     H          0.437683  
         H10       1.0000    0.75000   0.19400   0.37500   Biso      1.000     H          0.43768   
         H11       1.0000    0.25000   0.69400   0.87500   Biso      1.000     H          0.437683  
         H12       1.0000    0.00000   0.00000   0.12600   Biso      1.000     H          0.134674  
         H13       1.0000    0.50000   0.00000   0.87600   Biso      1.000     H          0.134674  
         H14       1.0000    0.00000   0.50000   0.37600   Biso      1.000     H          0.134674  
         H15       1.0000    0.00000   0.50000   0.12400   Biso      1.000     H          0.134674  
         H16       1.0000    0.50000   0.00000   0.62400   Biso      1.000     H          0.134674  
         H17       1.0000    0.00000   0.00000   0.87400   Biso      1.000     H          0.134674  
         H18       1.0000    0.11838   0.92682   0.59265   Biso      1.000     H          0.130678  
         H19       1.0000    0.50000   0.50000   0.62600   Biso      1.000     H          0.134674  
         H20       1.0000    0.50000   0.50000   0.37400   Biso      1.000     H          0.134674  
         H21       1.0000    0.92682   0.38162   0.84265   Biso      1.000     H          0.13068   
         H22       1.0000    0.42682   0.61838   0.90735   Biso      1.000     H          0.130678  
         H23       1.0000    0.88162   0.42682   0.65735   Biso      1.000     H          0.13068   
         H24       1.0000    0.42682   0.88162   0.34265   Biso      1.000     H          0.130678  
         H25       1.0000    0.57318   0.11838   0.34265   Biso      1.000     H          0.13068   
         H26       1.0000    0.92682   0.11838   0.40735   Biso      1.000     H          0.13068   
         H27       1.0000    0.61838   0.07318   0.15735   Biso      1.000     H          0.13068   
         H28       1.0000    0.11838   0.57318   0.65735   Biso      1.000     H          0.130678  
         H29       1.0000    0.07318   0.88162   0.40735   Biso      1.000     H          0.130678  
         H30       1.0000    0.38162   0.92682   0.15735   Biso      1.000     H          0.130678  
         H31       1.0000    0.88162   0.07318   0.59265   Biso      1.000     H          0.13068   
         H32       1.0000    0.57318   0.38162   0.90735   Biso      1.000     H          0.13068   
         O1        1.0000    0.25000   0.75410   0.87500   Biso      1.000     O          -0.993883           
         O2        1.0000    0.89899   0.29063   0.99250   Biso      1.000     O          -0.623287           
         O3        1.0000    0.88008   0.38223   0.35908   Biso      1.000     O          -0.549723           
         O4        1.0000    0.79063   0.39899   0.50750   Biso      1.000     O          -0.623287           
         O5        1.0000    0.38008   0.88223   0.85908   Biso      1.000     O          -0.549721           
         O6        1.0000    0.29063   0.89899   0.00750   Biso      1.000     O          -0.623285           
         O7        1.0000    0.61992   0.11777   0.85908   Biso      1.000     O          -0.549723           
         O8        1.0000    0.20937   0.60101   0.50750   Biso      1.000     O          -0.623285           
         O9        1.0000    0.75000   0.25410   0.37500   Biso      1.000     O          -0.993884           
         O10       1.0000    0.70937   0.10101   0.00750   Biso      1.000     O          -0.623287           
         O11       1.0000    0.38223   0.61992   0.60908   Biso      1.000     O          -0.54972  
         O12       1.0000    0.39899   0.70937   0.75750   Biso      1.000     O          -0.623286           
         O13       1.0000    0.88223   0.11992   0.10908   Biso      1.000     O          -0.549722           
         O14       1.0000    0.89899   0.20937   0.25750   Biso      1.000     O          -0.623287           
         O15       1.0000    0.11777   0.88008   0.10908   Biso      1.000     O          -0.54972  
         O16       1.0000    0.10101   0.79063   0.25750   Biso      1.000     O          -0.623286           
         O17       1.0000    0.61777   0.38008   0.60908   Biso      1.000     O          -0.549722           
         O18       1.0000    0.11992   0.61777   0.35908   Biso      1.000     O          -0.549721           
         O19       1.0000    0.88223   0.38008   0.14092   Biso      1.000     O          -0.549722           
         O20       1.0000    0.70937   0.39899   0.24250   Biso      1.000     O          -0.623287           
         O21       1.0000    0.38008   0.61777   0.39092   Biso      1.000     O          -0.549721           
         O22       1.0000    0.61992   0.38223   0.39092   Biso      1.000     O          -0.549723           
         O23       1.0000    0.29063   0.60101   0.24250   Biso      1.000     O          -0.623285           
         O24       1.0000    0.88008   0.11777   0.89092   Biso      1.000     O          -0.549723           
         O25       1.0000    0.79063   0.10101   0.74250   Biso      1.000     O          -0.623287           
         O26       1.0000    0.20937   0.89899   0.74250   Biso      1.000     O          -0.623285           
         O27       1.0000    0.11992   0.88223   0.89092   Biso      1.000     O          -0.549721           
         O28       1.0000    0.11777   0.61992   0.14092   Biso      1.000     O          -0.54972  
         O29       1.0000    0.10101   0.70937   0.99250   Biso      1.000     O          -0.623285           
         O30       1.0000    0.61777   0.11992   0.64092   Biso      1.000     O          -0.549722           
         O31       1.0000    0.25000   0.74590   0.37500   Biso      1.000     O          -0.993884           
         O32       1.0000    0.60101   0.29063   0.75750   Biso      1.000     O          -0.623287           
         O33       1.0000    0.74590   0.25000   0.62500   Biso      1.000     O          -0.993886           
         O34       1.0000    0.60101   0.20937   0.49250   Biso      1.000     O          -0.623288           
         O35       1.0000    0.24590   0.75000   0.12500   Biso      1.000     O          -0.993886           
         O36       1.0000    0.75410   0.25000   0.12500   Biso      1.000     O          -0.993886           
         O37       1.0000    0.38223   0.88008   0.64092   Biso      1.000     O          -0.54972  
         O38       1.0000    0.25410   0.75000   0.62500   Biso      1.000     O          -0.993886           
         O39       1.0000    0.39899   0.79063   0.49250   Biso      1.000     O          -0.623285           
         O40       1.0000    0.75000   0.24590   0.87500   Biso      1.000     O          -0.993885           
         V1        1.0000    0.69216   0.19216   0.75000   Biso      1.000     V          1.659336  
         V2        1.0000    0.80784   0.30784   0.25000   Biso      1.000     V          1.659336  
         V3        1.0000    0.80784   0.19216   0.00000   Biso      1.000     V          1.659336  
         V4        1.0000    0.19216   0.80784   0.00000   Biso      1.000     V          1.65934   
         V5        1.0000    0.69216   0.30784   0.50000   Biso      1.000     V          1.659336  
         V6        1.0000    0.30784   0.80784   0.75000   Biso      1.000     V          1.659341  
         V7        1.0000    0.19216   0.69216   0.25000   Biso      1.000     V          1.659339  
         V8        1.0000    0.30784   0.69216   0.50000   Biso      1.000     V          1.659339 