
##########################################################################
#               Crystallographic Information Format file
#               Produced by PyCifRW module
#
#  This is a CIF file.  CIF has been adopted by the International
#  Union of Crystallography as the standard for data archiving and
#  transmission.
#
#  For information on this file format, follow the CIF links at
#  http://www.iucr.org
##########################################################################

data_image0

_cell_length_a                          15.1165
_cell_length_b                          15.1165
_cell_length_c                          12.0355
_cell_angle_alpha                       90
_cell_angle_beta                        90
_cell_angle_gamma                       90
_symmetry_space_group_name_H-M          'P 1'
_symmetry_int_tables_number             1
loop_
  _symmetry_equiv_pos_as_xyz
         'x, y, z' 
loop_
  _atom_site_label
  _atom_site_occupancy
  _atom_site_fract_x
  _atom_site_fract_y
  _atom_site_fract_z
  _atom_site_thermal_displace_type
  _atom_site_B_iso_or_equiv
  _atom_site_type_symbol
  _atom_site_charge
         C1        1.0000    0.43330   0.54760   0.12040   Biso      1.000     C          -0.17757699999999998          
         C2        1.0000    0.06670   0.54760   0.62960   Biso      1.000     C          -0.17757799999999999          
         C3        1.0000    0.93630   0.04760   0.73950   Biso      1.000     C          -0.014475           
         C4        1.0000    0.00000   0.00000   0.43620   Biso      1.000     C          0.084208  
         C5        1.0000    0.00000   0.00000   0.20370   Biso      1.000     C          -0.10068300000000001          
         C6        1.0000    0.86090   0.40660   0.45780   Biso      1.000     C          0.620077  
         C7        1.0000    0.93630   0.45240   0.51050   Biso      1.000     C          -0.014474           
         C8        1.0000    0.93330   0.45240   0.62960   Biso      1.000     C          -0.177555           
         C9        1.0000    0.43630   0.54760   0.23950   Biso      1.000     C          -0.014497           
         C10       1.0000    0.50000   0.50000   0.93620   Biso      1.000     C          0.084208  
         C11       1.0000    0.50000   0.50000   0.70370   Biso      1.000     C          -0.100687           
         C12       1.0000    0.36090   0.90660   0.95780   Biso      1.000     C          0.6201220000000001  
         C13       1.0000    0.43630   0.95240   0.01050   Biso      1.000     C          -0.014497           
         C14       1.0000    0.43330   0.95240   0.12960   Biso      1.000     C          -0.17757799999999999          
         C15       1.0000    0.86090   0.09340   0.79220   Biso      1.000     C          0.620077  
         C16       1.0000    0.56670   0.45240   0.12040   Biso      1.000     C          -0.177556           
         C17       1.0000    0.90660   0.36090   0.04220   Biso      1.000     C          0.620077  
         C18       1.0000    0.95240   0.43630   0.98950   Biso      1.000     C          -0.014474           
         C19       1.0000    0.95240   0.43330   0.87040   Biso      1.000     C          -0.177555           
         C20       1.0000    0.50000   0.50000   0.06380   Biso      1.000     C          0.084208  
         C21       1.0000    0.04760   0.56670   0.87040   Biso      1.000     C          -0.177576           
         C22       1.0000    0.04760   0.56370   0.98950   Biso      1.000     C          -0.014497           
         C23       1.0000    0.40660   0.86090   0.54220   Biso      1.000     C          0.620124  
         C24       1.0000    0.45240   0.93630   0.48950   Biso      1.000     C          -0.014497999999999999         
         C25       1.0000    0.45240   0.93330   0.37040   Biso      1.000     C          -0.17757799999999999          
         C26       1.0000    0.09340   0.63910   0.04220   Biso      1.000     C          0.6201220000000001  
         C27       1.0000    0.13910   0.90660   0.79220   Biso      1.000     C          0.6201220000000001  
         C28       1.0000    0.06370   0.95240   0.73950   Biso      1.000     C          -0.014497999999999999         
         C29       1.0000    0.59340   0.13910   0.54220   Biso      1.000     C          0.6200760000000001  
         C30       1.0000    0.54760   0.06370   0.48950   Biso      1.000     C          -0.014475           
         C31       1.0000    0.06370   0.54760   0.51050   Biso      1.000     C          -0.014497           
         C32       1.0000    0.54760   0.06670   0.37040   Biso      1.000     C          -0.177556           
         C33       1.0000    0.13910   0.59340   0.45780   Biso      1.000     C          0.620124  
         C34       1.0000    0.50000   0.00000   0.18620   Biso      1.000     C          0.084208  
         C35       1.0000    0.50000   0.50000   0.29630   Biso      1.000     C          -0.10068400000000001          
         C36       1.0000    0.59340   0.36090   0.70780   Biso      1.000     C          0.6200760000000001  
         C37       1.0000    0.54760   0.43630   0.76050   Biso      1.000     C          -0.014473           
         C38       1.0000    0.54760   0.43330   0.87960   Biso      1.000     C          -0.177557           
         C39       1.0000    0.36090   0.59340   0.29220   Biso      1.000     C          0.620124  
         C40       1.0000    0.00000   0.00000   0.56380   Biso      1.000     C          0.084208  
         C41       1.0000    0.00000   0.00000   0.79630   Biso      1.000     C          -0.10068300000000001          
         C42       1.0000    0.09340   0.86090   0.20780   Biso      1.000     C          0.620123  
         C43       1.0000    0.04760   0.93630   0.26050   Biso      1.000     C          -0.014497           
         C44       1.0000    0.04760   0.93330   0.37960   Biso      1.000     C          -0.17757799999999999          
         C45       1.0000    0.50000   0.00000   0.31380   Biso      1.000     C          0.084207  
         C46       1.0000    0.50000   0.00000   0.54630   Biso      1.000     C          -0.100685           
         C47       1.0000    0.90660   0.13910   0.20780   Biso      1.000     C          0.620078  
         C48       1.0000    0.50000   0.00000   0.95370   Biso      1.000     C          -0.100685           
         C49       1.0000    0.06670   0.95240   0.62040   Biso      1.000     C          -0.177579           
         C50       1.0000    0.95240   0.06670   0.37960   Biso      1.000     C          -0.177557           
         C51       1.0000    0.93330   0.04760   0.62040   Biso      1.000     C          -0.177557           
         C52       1.0000    0.56670   0.04760   0.12960   Biso      1.000     C          -0.177558           
         C53       1.0000    0.56370   0.04760   0.01050   Biso      1.000     C          -0.014474           
         C54       1.0000    0.63910   0.09340   0.95780   Biso      1.000     C          0.620077  
         C55       1.0000    0.00000   0.50000   0.45370   Biso      1.000     C          -0.10068300000000001          
         C56       1.0000    0.00000   0.50000   0.68620   Biso      1.000     C          0.084208  
         C57       1.0000    0.95240   0.06370   0.26050   Biso      1.000     C          -0.014474           
         C58       1.0000    0.56370   0.45240   0.23950   Biso      1.000     C          -0.014474           
         C59       1.0000    0.45240   0.56370   0.76050   Biso      1.000     C          -0.014497           
         C60       1.0000    0.40660   0.63910   0.70780   Biso      1.000     C          0.620123  
         C61       1.0000    0.00000   0.50000   0.04630   Biso      1.000     C          -0.10068099999999999          
         C62       1.0000    0.00000   0.50000   0.81380   Biso      1.000     C          0.084208  
         C63       1.0000    0.63910   0.40660   0.29220   Biso      1.000     C          0.620078  
         C64       1.0000    0.45240   0.56670   0.87960   Biso      1.000     C          -0.17758  
         H1        1.0000    0.38162   0.57318   0.09265   Biso      1.000     H          0.131672  
         H2        1.0000    0.61838   0.42682   0.09265   Biso      1.000     H          0.131683  
         H3        1.0000    0.07318   0.61838   0.84265   Biso      1.000     H          0.131672  
         H4        1.0000    0.80600   0.25000   0.62500   Biso      1.000     H          0.42323299999999997           
         H5        1.0000    0.30600   0.75000   0.12500   Biso      1.000     H          0.423263  
         H6        1.0000    0.69400   0.25000   0.12500   Biso      1.000     H          0.42323500000000003           
         H7        1.0000    0.19400   0.75000   0.62500   Biso      1.000     H          0.42326499999999995           
         H8        1.0000    0.75000   0.30600   0.87500   Biso      1.000     H          0.423234  
         H9        1.0000    0.25000   0.80600   0.37500   Biso      1.000     H          0.42326400000000003           
         H10       1.0000    0.75000   0.19400   0.37500   Biso      1.000     H          0.423234  
         H11       1.0000    0.25000   0.69400   0.87500   Biso      1.000     H          0.423263  
         H12       1.0000    0.00000   0.00000   0.12600   Biso      1.000     H          0.137928  
         H13       1.0000    0.50000   0.00000   0.87600   Biso      1.000     H          0.137928  
         H14       1.0000    0.00000   0.50000   0.37600   Biso      1.000     H          0.137929  
         H15       1.0000    0.00000   0.50000   0.12400   Biso      1.000     H          0.137929  
         H16       1.0000    0.50000   0.00000   0.62400   Biso      1.000     H          0.137928  
         H17       1.0000    0.00000   0.00000   0.87400   Biso      1.000     H          0.137929  
         H18       1.0000    0.11838   0.92682   0.59265   Biso      1.000     H          0.131671  
         H19       1.0000    0.50000   0.50000   0.62600   Biso      1.000     H          0.137929  
         H20       1.0000    0.50000   0.50000   0.37400   Biso      1.000     H          0.137929  
         H21       1.0000    0.92682   0.38162   0.84265   Biso      1.000     H          0.131683  
         H22       1.0000    0.42682   0.61838   0.90735   Biso      1.000     H          0.131671  
         H23       1.0000    0.88162   0.42682   0.65735   Biso      1.000     H          0.131684  
         H24       1.0000    0.42682   0.88162   0.34265   Biso      1.000     H          0.13167   
         H25       1.0000    0.57318   0.11838   0.34265   Biso      1.000     H          0.131683  
         H26       1.0000    0.92682   0.11838   0.40735   Biso      1.000     H          0.131683  
         H27       1.0000    0.61838   0.07318   0.15735   Biso      1.000     H          0.131683  
         H28       1.0000    0.11838   0.57318   0.65735   Biso      1.000     H          0.131671  
         H29       1.0000    0.07318   0.88162   0.40735   Biso      1.000     H          0.131671  
         H30       1.0000    0.38162   0.92682   0.15735   Biso      1.000     H          0.131672  
         H31       1.0000    0.88162   0.07318   0.59265   Biso      1.000     H          0.131683  
         H32       1.0000    0.57318   0.38162   0.90735   Biso      1.000     H          0.131683  
         O1        1.0000    0.25000   0.75560   0.87500   Biso      1.000     O          -1.0015100000000001           
         O2        1.0000    0.89810   0.28790   0.99290   Biso      1.000     O          -0.595713           
         O3        1.0000    0.87930   0.38090   0.35870   Biso      1.000     O          -0.587271           
         O4        1.0000    0.78790   0.39810   0.50710   Biso      1.000     O          -0.595713           
         O5        1.0000    0.37930   0.88090   0.85870   Biso      1.000     O          -0.587253           
         O6        1.0000    0.28790   0.89810   0.00710   Biso      1.000     O          -0.595703           
         O7        1.0000    0.62070   0.11910   0.85870   Biso      1.000     O          -0.587271           
         O8        1.0000    0.21210   0.60190   0.50710   Biso      1.000     O          -0.595708           
         O9        1.0000    0.75000   0.25560   0.37500   Biso      1.000     O          -1.001514           
         O10       1.0000    0.71210   0.10190   0.00710   Biso      1.000     O          -0.595712           
         O11       1.0000    0.38090   0.62070   0.60870   Biso      1.000     O          -0.587256           
         O12       1.0000    0.39810   0.71210   0.75710   Biso      1.000     O          -0.595707           
         O13       1.0000    0.88090   0.12070   0.10870   Biso      1.000     O          -0.587271           
         O14       1.0000    0.89810   0.21210   0.25710   Biso      1.000     O          -0.595712           
         O15       1.0000    0.11910   0.87930   0.10870   Biso      1.000     O          -0.587255           
         O16       1.0000    0.10190   0.78790   0.25710   Biso      1.000     O          -0.595707           
         O17       1.0000    0.61910   0.37930   0.60870   Biso      1.000     O          -0.587271           
         O18       1.0000    0.12070   0.61910   0.35870   Biso      1.000     O          -0.5872569999999999           
         O19       1.0000    0.88090   0.37930   0.14130   Biso      1.000     O          -0.587271           
         O20       1.0000    0.71210   0.39810   0.24290   Biso      1.000     O          -0.595711           
         O21       1.0000    0.37930   0.61910   0.39130   Biso      1.000     O          -0.587256           
         O22       1.0000    0.62070   0.38090   0.39130   Biso      1.000     O          -0.587272           
         O23       1.0000    0.28790   0.60190   0.24290   Biso      1.000     O          -0.595707           
         O24       1.0000    0.87930   0.11910   0.89130   Biso      1.000     O          -0.587272           
         O25       1.0000    0.78790   0.10190   0.74290   Biso      1.000     O          -0.595709           
         O26       1.0000    0.21210   0.89810   0.74290   Biso      1.000     O          -0.5957020000000001           
         O27       1.0000    0.12070   0.88090   0.89130   Biso      1.000     O          -0.5872539999999999           
         O28       1.0000    0.11910   0.62070   0.14130   Biso      1.000     O          -0.5872539999999999           
         O29       1.0000    0.10190   0.71210   0.99290   Biso      1.000     O          -0.595703           
         O30       1.0000    0.61910   0.12070   0.64130   Biso      1.000     O          -0.5872689999999999           
         O31       1.0000    0.25000   0.74440   0.37500   Biso      1.000     O          -1.0015129999999999           
         O32       1.0000    0.60190   0.28790   0.75710   Biso      1.000     O          -0.595709           
         O33       1.0000    0.74440   0.25000   0.62500   Biso      1.000     O          -1.001514           
         O34       1.0000    0.60190   0.21210   0.49290   Biso      1.000     O          -0.595713           
         O35       1.0000    0.24440   0.75000   0.12500   Biso      1.000     O          -1.001514           
         O36       1.0000    0.75560   0.25000   0.12500   Biso      1.000     O          -1.001517           
         O37       1.0000    0.38090   0.87930   0.64130   Biso      1.000     O          -0.5872569999999999           
         O38       1.0000    0.25560   0.75000   0.62500   Biso      1.000     O          -1.001514           
         O39       1.0000    0.39810   0.78790   0.49290   Biso      1.000     O          -0.5957060000000001           
         O40       1.0000    0.75000   0.24440   0.87500   Biso      1.000     O          -1.0015129999999999           
         V1        1.0000    0.69102   0.19102   0.75000   Biso      1.000     V          1.7032479999999999  
         V2        1.0000    0.80898   0.30898   0.25000   Biso      1.000     V          1.703254  
         V3        1.0000    0.80898   0.19102   0.00000   Biso      1.000     V          1.7032610000000001  
         V4        1.0000    0.19102   0.80898   0.00000   Biso      1.000     V          1.7033580000000001  
         V5        1.0000    0.69102   0.30898   0.50000   Biso      1.000     V          1.703266  
         V6        1.0000    0.30898   0.80898   0.75000   Biso      1.000     V          1.703352  
         V7        1.0000    0.19102   0.69102   0.25000   Biso      1.000     V          1.703359  
         V8        1.0000    0.30898   0.69102   0.50000   Biso      1.000     V          1.703356 