
##########################################################################
#               Crystallographic Information Format file
#               Produced by PyCifRW module
#
#  This is a CIF file.  CIF has been adopted by the International
#  Union of Crystallography as the standard for data archiving and
#  transmission.
#
#  For information on this file format, follow the CIF links at
#  http://www.iucr.org
##########################################################################

data_image0

_cell_length_a                          15.1267
_cell_length_b                          15.1267
_cell_length_c                          12.0363
_cell_angle_alpha                       90
_cell_angle_beta                        90
_cell_angle_gamma                       90
_symmetry_space_group_name_H-M          'P 1'
_symmetry_int_tables_number             1
loop_
  _symmetry_equiv_pos_as_xyz
         'x, y, z' 
loop_
  _atom_site_label
  _atom_site_occupancy
  _atom_site_fract_x
  _atom_site_fract_y
  _atom_site_fract_z
  _atom_site_thermal_displace_type
  _atom_site_B_iso_or_equiv
  _atom_site_type_symbol
  _atom_site_charge
         C1        1.0000    0.43320   0.54760   0.12060   Biso      1.000     C          -0.18091500000000002          
         C2        1.0000    0.06680   0.54760   0.62940   Biso      1.000     C          -0.18091400000000002          
         C3        1.0000    0.93560   0.04670   0.73960   Biso      1.000     C          -0.017372           
         C4        1.0000    0.00000   0.00000   0.43620   Biso      1.000     C          0.08417999999999999           
         C5        1.0000    0.00000   0.00000   0.20300   Biso      1.000     C          -0.115014           
         C6        1.0000    0.86270   0.40420   0.45520   Biso      1.000     C          0.641243  
         C7        1.0000    0.93560   0.45330   0.51040   Biso      1.000     C          -0.017371           
         C8        1.0000    0.93320   0.45240   0.62940   Biso      1.000     C          -0.18091600000000002          
         C9        1.0000    0.43560   0.54670   0.23960   Biso      1.000     C          -0.017371           
         C10       1.0000    0.50000   0.50000   0.93620   Biso      1.000     C          0.08417999999999999           
         C11       1.0000    0.50000   0.50000   0.70300   Biso      1.000     C          -0.115015           
         C12       1.0000    0.36270   0.90420   0.95520   Biso      1.000     C          0.641242  
         C13       1.0000    0.43560   0.95330   0.01040   Biso      1.000     C          -0.01737  
         C14       1.0000    0.43320   0.95240   0.12940   Biso      1.000     C          -0.18091500000000002          
         C15       1.0000    0.86270   0.09580   0.79480   Biso      1.000     C          0.6412439999999999  
         C16       1.0000    0.56680   0.45240   0.12060   Biso      1.000     C          -0.18091600000000002          
         C17       1.0000    0.90420   0.36270   0.04480   Biso      1.000     C          0.6412439999999999  
         C18       1.0000    0.95330   0.43560   0.98960   Biso      1.000     C          -0.017371           
         C19       1.0000    0.95240   0.43320   0.87060   Biso      1.000     C          -0.18091500000000002          
         C20       1.0000    0.50000   0.50000   0.06380   Biso      1.000     C          0.084178  
         C21       1.0000    0.04760   0.56680   0.87060   Biso      1.000     C          -0.18091400000000002          
         C22       1.0000    0.04670   0.56440   0.98960   Biso      1.000     C          -0.017371           
         C23       1.0000    0.40420   0.86270   0.54480   Biso      1.000     C          0.641242  
         C24       1.0000    0.45330   0.93560   0.48960   Biso      1.000     C          -0.01737  
         C25       1.0000    0.45240   0.93320   0.37060   Biso      1.000     C          -0.18091400000000002          
         C26       1.0000    0.09580   0.63730   0.04480   Biso      1.000     C          0.641243  
         C27       1.0000    0.13730   0.90420   0.79480   Biso      1.000     C          0.641242  
         C28       1.0000    0.06440   0.95330   0.73960   Biso      1.000     C          -0.01737  
         C29       1.0000    0.59580   0.13730   0.54480   Biso      1.000     C          0.641243  
         C30       1.0000    0.54670   0.06440   0.48960   Biso      1.000     C          -0.017372           
         C31       1.0000    0.06440   0.54670   0.51040   Biso      1.000     C          -0.017371           
         C32       1.0000    0.54760   0.06680   0.37060   Biso      1.000     C          -0.18091600000000002          
         C33       1.0000    0.13730   0.59580   0.45520   Biso      1.000     C          0.641242  
         C34       1.0000    0.50000   0.00000   0.18620   Biso      1.000     C          0.08417899999999999           
         C35       1.0000    0.50000   0.50000   0.29700   Biso      1.000     C          -0.11501199999999999          
         C36       1.0000    0.59580   0.36270   0.70520   Biso      1.000     C          0.641243  
         C37       1.0000    0.54670   0.43560   0.76040   Biso      1.000     C          -0.017369           
         C38       1.0000    0.54760   0.43320   0.87940   Biso      1.000     C          -0.180917           
         C39       1.0000    0.36270   0.59580   0.29480   Biso      1.000     C          0.641243  
         C40       1.0000    0.00000   0.00000   0.56380   Biso      1.000     C          0.08417899999999999           
         C41       1.0000    0.00000   0.00000   0.79700   Biso      1.000     C          -0.115008           
         C42       1.0000    0.09580   0.86270   0.20520   Biso      1.000     C          0.641242  
         C43       1.0000    0.04670   0.93560   0.26040   Biso      1.000     C          -0.017368           
         C44       1.0000    0.04760   0.93320   0.37940   Biso      1.000     C          -0.18091600000000002          
         C45       1.0000    0.50000   0.00000   0.31380   Biso      1.000     C          0.084178  
         C46       1.0000    0.50000   0.00000   0.54700   Biso      1.000     C          -0.115008           
         C47       1.0000    0.90420   0.13730   0.20520   Biso      1.000     C          0.6412439999999999  
         C48       1.0000    0.50000   0.00000   0.95300   Biso      1.000     C          -0.11501099999999999          
         C49       1.0000    0.06680   0.95240   0.62060   Biso      1.000     C          -0.18091600000000002          
         C50       1.0000    0.95240   0.06680   0.37940   Biso      1.000     C          -0.18091600000000002          
         C51       1.0000    0.93320   0.04760   0.62060   Biso      1.000     C          -0.180917           
         C52       1.0000    0.56680   0.04760   0.12940   Biso      1.000     C          -0.18091600000000002          
         C53       1.0000    0.56440   0.04670   0.01040   Biso      1.000     C          -0.017369           
         C54       1.0000    0.63730   0.09580   0.95520   Biso      1.000     C          0.6412439999999999  
         C55       1.0000    0.00000   0.50000   0.45300   Biso      1.000     C          -0.115008           
         C56       1.0000    0.00000   0.50000   0.68620   Biso      1.000     C          0.084178  
         C57       1.0000    0.95330   0.06440   0.26040   Biso      1.000     C          -0.017369           
         C58       1.0000    0.56440   0.45330   0.23960   Biso      1.000     C          -0.01737  
         C59       1.0000    0.45330   0.56440   0.76040   Biso      1.000     C          -0.017368           
         C60       1.0000    0.40420   0.63730   0.70520   Biso      1.000     C          0.641242  
         C61       1.0000    0.00000   0.50000   0.04700   Biso      1.000     C          -0.115007           
         C62       1.0000    0.00000   0.50000   0.81380   Biso      1.000     C          0.084178  
         C63       1.0000    0.63730   0.40420   0.29480   Biso      1.000     C          0.641243  
         C64       1.0000    0.45240   0.56680   0.87940   Biso      1.000     C          -0.18091600000000002          
         H1        1.0000    0.38162   0.57318   0.09265   Biso      1.000     H          0.13386800000000001           
         H2        1.0000    0.61838   0.42682   0.09265   Biso      1.000     H          0.13386800000000001           
         H3        1.0000    0.07318   0.61838   0.84265   Biso      1.000     H          0.13386800000000001           
         H4        1.0000    0.80600   0.25000   0.62500   Biso      1.000     H          0.43308199999999997           
         H5        1.0000    0.30600   0.75000   0.12500   Biso      1.000     H          0.43308100000000005           
         H6        1.0000    0.69400   0.25000   0.12500   Biso      1.000     H          0.43308199999999997           
         H7        1.0000    0.19400   0.75000   0.62500   Biso      1.000     H          0.43308100000000005           
         H8        1.0000    0.75000   0.30600   0.87500   Biso      1.000     H          0.43308199999999997           
         H9        1.0000    0.25000   0.80600   0.37500   Biso      1.000     H          0.43308100000000005           
         H10       1.0000    0.75000   0.19400   0.37500   Biso      1.000     H          0.43308199999999997           
         H11       1.0000    0.25000   0.69400   0.87500   Biso      1.000     H          0.43308100000000005           
         H12       1.0000    0.00000   0.00000   0.12600   Biso      1.000     H          0.138721  
         H13       1.0000    0.50000   0.00000   0.87600   Biso      1.000     H          0.138721  
         H14       1.0000    0.00000   0.50000   0.37600   Biso      1.000     H          0.138721  
         H15       1.0000    0.00000   0.50000   0.12400   Biso      1.000     H          0.138721  
         H16       1.0000    0.50000   0.00000   0.62400   Biso      1.000     H          0.138721  
         H17       1.0000    0.00000   0.00000   0.87400   Biso      1.000     H          0.138721  
         H18       1.0000    0.11838   0.92682   0.59265   Biso      1.000     H          0.13386800000000001           
         H19       1.0000    0.50000   0.50000   0.62600   Biso      1.000     H          0.138721  
         H20       1.0000    0.50000   0.50000   0.37400   Biso      1.000     H          0.138721  
         H21       1.0000    0.92682   0.38162   0.84265   Biso      1.000     H          0.13386800000000001           
         H22       1.0000    0.42682   0.61838   0.90735   Biso      1.000     H          0.13386800000000001           
         H23       1.0000    0.88162   0.42682   0.65735   Biso      1.000     H          0.13386800000000001           
         H24       1.0000    0.42682   0.88162   0.34265   Biso      1.000     H          0.13386800000000001           
         H25       1.0000    0.57318   0.11838   0.34265   Biso      1.000     H          0.13386800000000001           
         H26       1.0000    0.92682   0.11838   0.40735   Biso      1.000     H          0.13386800000000001           
         H27       1.0000    0.61838   0.07318   0.15735   Biso      1.000     H          0.13386800000000001           
         H28       1.0000    0.11838   0.57318   0.65735   Biso      1.000     H          0.13386800000000001           
         H29       1.0000    0.07318   0.88162   0.40735   Biso      1.000     H          0.13386800000000001           
         H30       1.0000    0.38162   0.92682   0.15735   Biso      1.000     H          0.13386800000000001           
         H31       1.0000    0.88162   0.07318   0.59265   Biso      1.000     H          0.13386800000000001           
         H32       1.0000    0.57318   0.38162   0.90735   Biso      1.000     H          0.13386800000000001           
         O1        1.0000    0.25000   0.75370   0.87500   Biso      1.000     O          -1.011922           
         O2        1.0000    0.89870   0.29040   0.99410   Biso      1.000     O          -0.610572           
         O3        1.0000    0.87710   0.38200   0.35850   Biso      1.000     O          -0.5780890000000001           
         O4        1.0000    0.79040   0.39870   0.50590   Biso      1.000     O          -0.610572           
         O5        1.0000    0.37710   0.88200   0.85850   Biso      1.000     O          -0.57809  
         O6        1.0000    0.29040   0.89870   0.00590   Biso      1.000     O          -0.610572           
         O7        1.0000    0.62290   0.11800   0.85850   Biso      1.000     O          -0.5780890000000001           
         O8        1.0000    0.20960   0.60130   0.50590   Biso      1.000     O          -0.610572           
         O9        1.0000    0.75000   0.25370   0.37500   Biso      1.000     O          -1.011922           
         O10       1.0000    0.70960   0.10130   0.00590   Biso      1.000     O          -0.610572           
         O11       1.0000    0.38200   0.62290   0.60850   Biso      1.000     O          -0.5780890000000001           
         O12       1.0000    0.39870   0.70960   0.75590   Biso      1.000     O          -0.610572           
         O13       1.0000    0.88200   0.12290   0.10850   Biso      1.000     O          -0.578088           
         O14       1.0000    0.89870   0.20960   0.25590   Biso      1.000     O          -0.610572           
         O15       1.0000    0.11800   0.87710   0.10850   Biso      1.000     O          -0.578088           
         O16       1.0000    0.10130   0.79040   0.25590   Biso      1.000     O          -0.6105729999999999           
         O17       1.0000    0.61800   0.37710   0.60850   Biso      1.000     O          -0.578088           
         O18       1.0000    0.12290   0.61800   0.35850   Biso      1.000     O          -0.57809  
         O19       1.0000    0.88200   0.37710   0.14150   Biso      1.000     O          -0.578088           
         O20       1.0000    0.70960   0.39870   0.24410   Biso      1.000     O          -0.610572           
         O21       1.0000    0.37710   0.61800   0.39150   Biso      1.000     O          -0.57809  
         O22       1.0000    0.62290   0.38200   0.39150   Biso      1.000     O          -0.5780890000000001           
         O23       1.0000    0.29040   0.60130   0.24410   Biso      1.000     O          -0.610572           
         O24       1.0000    0.87710   0.11800   0.89150   Biso      1.000     O          -0.5780890000000001           
         O25       1.0000    0.79040   0.10130   0.74410   Biso      1.000     O          -0.610572           
         O26       1.0000    0.20960   0.89870   0.74410   Biso      1.000     O          -0.610572           
         O27       1.0000    0.12290   0.88200   0.89150   Biso      1.000     O          -0.57809  
         O28       1.0000    0.11800   0.62290   0.14150   Biso      1.000     O          -0.5780890000000001           
         O29       1.0000    0.10130   0.70960   0.99410   Biso      1.000     O          -0.610572           
         O30       1.0000    0.61800   0.12290   0.64150   Biso      1.000     O          -0.578088           
         O31       1.0000    0.25000   0.74630   0.37500   Biso      1.000     O          -1.011922           
         O32       1.0000    0.60130   0.29040   0.75590   Biso      1.000     O          -0.610572           
         O33       1.0000    0.74630   0.25000   0.62500   Biso      1.000     O          -1.011924           
         O34       1.0000    0.60130   0.20960   0.49410   Biso      1.000     O          -0.610571           
         O35       1.0000    0.24630   0.75000   0.12500   Biso      1.000     O          -1.011925           
         O36       1.0000    0.75370   0.25000   0.12500   Biso      1.000     O          -1.011925           
         O37       1.0000    0.38200   0.87710   0.64150   Biso      1.000     O          -0.5780890000000001           
         O38       1.0000    0.25370   0.75000   0.62500   Biso      1.000     O          -1.011925           
         O39       1.0000    0.39870   0.79040   0.49410   Biso      1.000     O          -0.610572           
         O40       1.0000    0.75000   0.24630   0.87500   Biso      1.000     O          -1.011922           
         V1        1.0000    0.69016   0.19016   0.75000   Biso      1.000     V          1.694625  
         V2        1.0000    0.80984   0.30984   0.25000   Biso      1.000     V          1.6946259999999997  
         V3        1.0000    0.80984   0.19016   0.00000   Biso      1.000     V          1.694625  
         V4        1.0000    0.19016   0.80984   0.00000   Biso      1.000     V          1.694622  
         V5        1.0000    0.69016   0.30984   0.50000   Biso      1.000     V          1.694623  
         V6        1.0000    0.30984   0.80984   0.75000   Biso      1.000     V          1.694622  
         V7        1.0000    0.19016   0.69016   0.25000   Biso      1.000     V          1.6946240000000001  
         V8        1.0000    0.30984   0.69016   0.50000   Biso      1.000     V          1.694623 