
##########################################################################
#               Crystallographic Information Format file
#               Produced by PyCifRW module
#
#  This is a CIF file.  CIF has been adopted by the International
#  Union of Crystallography as the standard for data archiving and
#  transmission.
#
#  For information on this file format, follow the CIF links at
#  http://www.iucr.org
##########################################################################

data_image0

_cell_length_a                          6.843
_cell_length_b                          10.978
_cell_length_c                          12.687
_cell_angle_alpha                       90
_cell_angle_beta                        90
_cell_angle_gamma                       90
_symmetry_space_group_name_H-M          'P 1'
_symmetry_int_tables_number             1
loop_
  _symmetry_equiv_pos_as_xyz
         'x, y, z' 
loop_
  _atom_site_label
  _atom_site_occupancy
  _atom_site_fract_x
  _atom_site_fract_y
  _atom_site_fract_z
  _atom_site_thermal_displace_type
  _atom_site_B_iso_or_equiv
  _atom_site_type_symbol
  _atom_site_charge
         Ag1       1.0000    0.12787   0.75000   0.91672   Biso      1.000     Ag          0.445763  
         Ag2       1.0000    0.62787   0.75000   0.58328   Biso      1.000     Ag          0.445762  
         Ag3       1.0000    0.87213   0.25000   0.08328   Biso      1.000     Ag          0.44576400000000005           
         Ag4       1.0000    0.37213   0.25000   0.41672   Biso      1.000     Ag          0.445762  
         C1        1.0000    0.87390   0.94780   0.43280   Biso      1.000     C          0.020928  
         C2        1.0000    0.37390   0.55220   0.06720   Biso      1.000     C          0.020926  
         C3        1.0000    0.49250   0.53590   0.90160   Biso      1.000     C          0.087934  
         C4        1.0000    0.48650   0.57590   0.79330   Biso      1.000     C          0.23273000000000002           
         C5        1.0000    0.48650   0.92410   0.79330   Biso      1.000     C          0.232727  
         C6        1.0000    0.49250   0.96410   0.90160   Biso      1.000     C          0.08794   
         C7        1.0000    0.62610   0.05220   0.93280   Biso      1.000     C          0.020924  
         C8        1.0000    0.50750   0.03590   0.09840   Biso      1.000     C          0.08794   
         C9        1.0000    0.51350   0.07590   0.20670   Biso      1.000     C          0.232727  
         C10       1.0000    0.99250   0.96410   0.59840   Biso      1.000     C          0.08794   
         C11       1.0000    0.37390   0.94780   0.06720   Biso      1.000     C          0.020924  
         C12       1.0000    0.98650   0.92410   0.70670   Biso      1.000     C          0.232724  
         C13       1.0000    0.87390   0.55220   0.43280   Biso      1.000     C          0.020928  
         C14       1.0000    0.98650   0.57590   0.70670   Biso      1.000     C          0.23273000000000002           
         C15       1.0000    0.99250   0.53590   0.59840   Biso      1.000     C          0.087934  
         C16       1.0000    0.50750   0.46410   0.09840   Biso      1.000     C          0.087933  
         C17       1.0000    0.01350   0.42410   0.29330   Biso      1.000     C          0.23273000000000002           
         C18       1.0000    0.00750   0.46410   0.40160   Biso      1.000     C          0.087933  
         C19       1.0000    0.12610   0.44780   0.56720   Biso      1.000     C          0.020928  
         C20       1.0000    0.62610   0.44780   0.93280   Biso      1.000     C          0.020925  
         C21       1.0000    0.01350   0.07590   0.29330   Biso      1.000     C          0.232725  
         C22       1.0000    0.51350   0.42410   0.20670   Biso      1.000     C          0.23273000000000002           
         C23       1.0000    0.00750   0.03590   0.40160   Biso      1.000     C          0.087939  
         C24       1.0000    0.12610   0.05220   0.56720   Biso      1.000     C          0.020926  
         H1        1.0000    0.78100   0.58790   0.37870   Biso      1.000     H          0.10413900000000001           
         H2        1.0000    0.78100   0.91210   0.37870   Biso      1.000     H          0.104137  
         H3        1.0000    0.21900   0.41210   0.62130   Biso      1.000     H          0.10413900000000001           
         H4        1.0000    0.71900   0.08790   0.87870   Biso      1.000     H          0.10413800000000001           
         H5        1.0000    0.28100   0.58790   0.12130   Biso      1.000     H          0.10414100000000001           
         H6        1.0000    0.21900   0.08790   0.62130   Biso      1.000     H          0.10413800000000001           
         H7        1.0000    0.28100   0.91210   0.12130   Biso      1.000     H          0.10413800000000001           
         H8        1.0000    0.71900   0.41210   0.87870   Biso      1.000     H          0.10414100000000001           
         N1        1.0000    0.51600   0.39020   0.29180   Biso      1.000     N          -0.394571           
         N2        1.0000    0.63480   0.41070   0.03250   Biso      1.000     N          -0.274035           
         N3        1.0000    0.36520   0.91070   0.96750   Biso      1.000     N          -0.274039           
         N4        1.0000    0.63480   0.08930   0.03250   Biso      1.000     N          -0.27404  
         N5        1.0000    0.36520   0.58930   0.96750   Biso      1.000     N          -0.274036           
         N6        1.0000    0.48400   0.60980   0.70820   Biso      1.000     N          -0.394571           
         N7        1.0000    0.51600   0.10980   0.29180   Biso      1.000     N          -0.394575           
         N8        1.0000    0.86520   0.91070   0.53250   Biso      1.000     N          -0.274041           
         N9        1.0000    0.86520   0.58930   0.53250   Biso      1.000     N          -0.27404  
         N10       1.0000    0.98400   0.60980   0.79180   Biso      1.000     N          -0.394571           
         N11       1.0000    0.13480   0.08930   0.46750   Biso      1.000     N          -0.274041           
         N12       1.0000    0.01600   0.10980   0.20820   Biso      1.000     N          -0.394571           
         N13       1.0000    0.13480   0.41070   0.46750   Biso      1.000     N          -0.27404  
         N14       1.0000    0.01600   0.39020   0.20820   Biso      1.000     N          -0.394571           
         N15       1.0000    0.48400   0.89020   0.70820   Biso      1.000     N          -0.394575           
         N16       1.0000    0.98400   0.89020   0.79180   Biso      1.000     N          -0.394571 