
##########################################################################
#               Crystallographic Information Format file
#               Produced by PyCifRW module
#
#  This is a CIF file.  CIF has been adopted by the International
#  Union of Crystallography as the standard for data archiving and
#  transmission.
#
#  For information on this file format, follow the CIF links at
#  http://www.iucr.org
##########################################################################

data_image0

_cell_length_a                          7.434
_cell_length_b                          11.927
_cell_length_c                          13.255
_cell_angle_alpha                       90
_cell_angle_beta                        90
_cell_angle_gamma                       90
_symmetry_space_group_name_H-M          'P 1'
_symmetry_int_tables_number             1
loop_
  _symmetry_equiv_pos_as_xyz
         'x, y, z' 
loop_
  _atom_site_label
  _atom_site_occupancy
  _atom_site_fract_x
  _atom_site_fract_y
  _atom_site_fract_z
  _atom_site_thermal_displace_type
  _atom_site_B_iso_or_equiv
  _atom_site_type_symbol
  _atom_site_charge
         Ag1       1.0000    0.23383   0.25000   0.39001   Biso      1.000     Ag          0.481674  
         Ag2       1.0000    0.73383   0.25000   0.10999   Biso      1.000     Ag          0.48167600000000005           
         Ag3       1.0000    0.76617   0.75000   0.60999   Biso      1.000     Ag          0.481674  
         Ag4       1.0000    0.26617   0.75000   0.89001   Biso      1.000     Ag          0.481675  
         C1        1.0000    0.90090   0.91380   0.81500   Biso      1.000     C          0.28533800000000004           
         C2        1.0000    0.45390   0.95790   0.58710   Biso      1.000     C          0.178263  
         C3        1.0000    0.63700   0.94910   0.45200   Biso      1.000     C          -0.204438           
         C4        1.0000    0.59910   0.41380   0.31500   Biso      1.000     C          0.285339  
         C5        1.0000    0.54610   0.45790   0.41290   Biso      1.000     C          0.178259  
         C6        1.0000    0.36300   0.44910   0.54800   Biso      1.000     C          -0.204449           
         C7        1.0000    0.40090   0.91380   0.68500   Biso      1.000     C          0.28533800000000004           
         C8        1.0000    0.54610   0.04210   0.41290   Biso      1.000     C          0.178258  
         C9        1.0000    0.36300   0.05090   0.54800   Biso      1.000     C          -0.20445  
         C10       1.0000    0.40090   0.58620   0.68500   Biso      1.000     C          0.285337  
         C11       1.0000    0.45390   0.54210   0.58710   Biso      1.000     C          0.17826199999999998           
         C12       1.0000    0.63700   0.55090   0.45200   Biso      1.000     C          -0.204443           
         C13       1.0000    0.86300   0.44910   0.95200   Biso      1.000     C          -0.20444500000000002          
         C14       1.0000    0.04610   0.45790   0.08710   Biso      1.000     C          0.178258  
         C15       1.0000    0.90090   0.58620   0.81500   Biso      1.000     C          0.28533800000000004           
         C16       1.0000    0.59910   0.08620   0.31500   Biso      1.000     C          0.28533800000000004           
         C17       1.0000    0.04610   0.04210   0.08710   Biso      1.000     C          0.178259  
         C18       1.0000    0.13700   0.94910   0.04800   Biso      1.000     C          -0.20444  
         C19       1.0000    0.95390   0.95790   0.91290   Biso      1.000     C          0.178263  
         C20       1.0000    0.09910   0.41380   0.18500   Biso      1.000     C          0.285339  
         C21       1.0000    0.95390   0.54210   0.91290   Biso      1.000     C          0.17826199999999998           
         C22       1.0000    0.09910   0.08620   0.18500   Biso      1.000     C          0.285337  
         C23       1.0000    0.13700   0.55090   0.04800   Biso      1.000     C          -0.204433           
         C24       1.0000    0.86300   0.05090   0.95200   Biso      1.000     C          -0.204454           
         N1        1.0000    0.35600   0.62260   0.75880   Biso      1.000     N          -0.342607           
         N2        1.0000    0.09030   0.90750   0.95940   Biso      1.000     N          -0.157385           
         N3        1.0000    0.59030   0.90750   0.54060   Biso      1.000     N          -0.157384           
         N4        1.0000    0.64400   0.12260   0.24120   Biso      1.000     N          -0.34260999999999997          
         N5        1.0000    0.64400   0.37740   0.24120   Biso      1.000     N          -0.342611           
         N6        1.0000    0.14400   0.37740   0.25880   Biso      1.000     N          -0.34260999999999997          
         N7        1.0000    0.90970   0.09250   0.04060   Biso      1.000     N          -0.15738  
         N8        1.0000    0.85600   0.87740   0.74120   Biso      1.000     N          -0.34260799999999997          
         N9        1.0000    0.09030   0.59250   0.95940   Biso      1.000     N          -0.157387           
         N10       1.0000    0.35600   0.87740   0.75880   Biso      1.000     N          -0.342607           
         N11       1.0000    0.85600   0.62260   0.74120   Biso      1.000     N          -0.342607           
         N12       1.0000    0.59030   0.59250   0.54060   Biso      1.000     N          -0.157384           
         N13       1.0000    0.40970   0.09250   0.45940   Biso      1.000     N          -0.157379           
         N14       1.0000    0.14400   0.12260   0.25880   Biso      1.000     N          -0.34260999999999997          
         N15       1.0000    0.40970   0.40750   0.45940   Biso      1.000     N          -0.15738  
         N16       1.0000    0.90970   0.40750   0.04060   Biso      1.000     N          -0.157382 