
##########################################################################
#               Crystallographic Information Format file
#               Produced by PyCifRW module
#
#  This is a CIF file.  CIF has been adopted by the International
#  Union of Crystallography as the standard for data archiving and
#  transmission.
#
#  For information on this file format, follow the CIF links at
#  http://www.iucr.org
##########################################################################

data_image0

_cell_length_a                          10.6879
_cell_length_b                          10.6879
_cell_length_c                          18.6791
_cell_angle_alpha                       74.2053
_cell_angle_beta                        74.2053
_cell_angle_gamma                       64.7005
_symmetry_space_group_name_H-M          'P 1'
_symmetry_int_tables_number             1
loop_
  _symmetry_equiv_pos_as_xyz
         'x, y, z' 
loop_
  _atom_site_label
  _atom_site_occupancy
  _atom_site_fract_x
  _atom_site_fract_y
  _atom_site_fract_z
  _atom_site_thermal_displace_type
  _atom_site_B_iso_or_equiv
  _atom_site_type_symbol
  _atom_site_charge
         C1        1.0000    0.08073   0.58071   0.10663   Biso      1.000     C          -0.022596           
         C2        1.0000    0.22703   0.57299   0.07060   Biso      1.000     C          0.671265  
         C3        1.0000    0.98888   0.53488   0.56843   Biso      1.000     C          -0.097633           
         C4        1.0000    0.44417   0.32117   0.29411   Biso      1.000     C          0.6680729999999999  
         C5        1.0000    0.48687   0.88625   0.98423   Biso      1.000     C          -0.021222           
         C6        1.0000    0.42874   0.18318   0.32888   Biso      1.000     C          -0.051688           
         C7        1.0000    0.45253   0.08933   0.28281   Biso      1.000     C          -0.097665           
         C8        1.0000    0.52154   0.87576   0.05289   Biso      1.000     C          -0.101659           
         C9        1.0000    0.39682   0.14610   0.40715   Biso      1.000     C          -0.11118900000000001          
         C10       1.0000    0.47220   0.76578   0.96613   Biso      1.000     C          0.642794  
         C11       1.0000    0.04225   0.55201   0.18493   Biso      1.000     C          -0.09829  
         C12       1.0000    0.39135   0.01455   0.43921   Biso      1.000     C          -0.097661           
         C13       1.0000    0.41929   0.91927   0.39337   Biso      1.000     C          -0.022596           
         C14       1.0000    0.42701   0.77297   0.42940   Biso      1.000     C          0.671265  
         C15       1.0000    0.44799   0.95775   0.31507   Biso      1.000     C          -0.098289           
         C16       1.0000    0.67883   0.55583   0.20589   Biso      1.000     C          0.6680729999999999  
         C17       1.0000    0.11375   0.51313   0.51577   Biso      1.000     C          -0.021222           
         C18       1.0000    0.81682   0.57126   0.17112   Biso      1.000     C          -0.051688           
         C19       1.0000    0.91067   0.54747   0.21719   Biso      1.000     C          -0.097664           
         C20       1.0000    0.12424   0.47846   0.44711   Biso      1.000     C          -0.101659           
         C21       1.0000    0.85390   0.60318   0.09285   Biso      1.000     C          -0.11118900000000001          
         C22       1.0000    0.46512   0.01112   0.93157   Biso      1.000     C          -0.097633           
         C23       1.0000    0.55583   0.67883   0.70589   Biso      1.000     C          0.6680729999999999  
         C24       1.0000    0.51313   0.11375   0.01577   Biso      1.000     C          -0.021222           
         C25       1.0000    0.57126   0.81682   0.67112   Biso      1.000     C          -0.051689           
         C26       1.0000    0.95775   0.44799   0.81507   Biso      1.000     C          -0.09829  
         C27       1.0000    0.77297   0.42701   0.92940   Biso      1.000     C          0.671265  
         C28       1.0000    0.91927   0.41929   0.89337   Biso      1.000     C          -0.022596           
         C29       1.0000    0.01112   0.46512   0.43157   Biso      1.000     C          -0.097633           
         C30       1.0000    0.01455   0.39135   0.93921   Biso      1.000     C          -0.097661           
         C31       1.0000    0.76578   0.47220   0.46613   Biso      1.000     C          0.642794  
         C32       1.0000    0.14610   0.39682   0.90715   Biso      1.000     C          -0.11118900000000001          
         C33       1.0000    0.87576   0.52154   0.55289   Biso      1.000     C          -0.10166  
         C34       1.0000    0.08933   0.45253   0.78281   Biso      1.000     C          -0.097665           
         C35       1.0000    0.18318   0.42874   0.82888   Biso      1.000     C          -0.051687000000000004         
         C36       1.0000    0.88625   0.48687   0.48423   Biso      1.000     C          -0.021221           
         C37       1.0000    0.32117   0.44417   0.79411   Biso      1.000     C          0.668072  
         C38       1.0000    0.55201   0.04225   0.68493   Biso      1.000     C          -0.09829  
         C39       1.0000    0.57299   0.22703   0.57060   Biso      1.000     C          0.671265  
         C40       1.0000    0.58071   0.08073   0.60663   Biso      1.000     C          -0.022596           
         C41       1.0000    0.53488   0.98888   0.06843   Biso      1.000     C          -0.097633           
         C42       1.0000    0.60865   0.98545   0.56079   Biso      1.000     C          -0.097662           
         C43       1.0000    0.52780   0.23422   0.03387   Biso      1.000     C          0.642794  
         C44       1.0000    0.60318   0.85390   0.59285   Biso      1.000     C          -0.111187           
         C45       1.0000    0.47846   0.12424   0.94711   Biso      1.000     C          -0.101659           
         C46       1.0000    0.54747   0.91067   0.71719   Biso      1.000     C          -0.097664           
         C47       1.0000    0.23422   0.52780   0.53387   Biso      1.000     C          0.642794  
         C48       1.0000    0.98545   0.60865   0.06079   Biso      1.000     C          -0.09766  
         Gd1       1.0000    0.55809   0.43825   0.10218   Biso      1.000     Gd          2.095153  
         Gd2       1.0000    0.44191   0.56175   0.89782   Biso      1.000     Gd          2.095153  
         Gd3       1.0000    0.56175   0.44191   0.39782   Biso      1.000     Gd          2.095153  
         Gd4       1.0000    0.43825   0.55809   0.60218   Biso      1.000     Gd          2.095153  
         H1        1.0000    0.89370   0.46450   0.78370   Biso      1.000     H          0.12466700000000001           
         H2        1.0000    0.47180   0.11540   0.22940   Biso      1.000     H          0.12183599999999999           
         H3        1.0000    0.53600   0.79120   0.08910   Biso      1.000     H          0.121874  
         H4        1.0000    0.37880   0.21060   0.43860   Biso      1.000     H          0.110471  
         H5        1.0000    0.36850   0.98970   0.49260   Biso      1.000     H          0.11778499999999999           
         H6        1.0000    0.44100   0.01880   0.88480   Biso      1.000     H          0.12166500000000001           
         H7        1.0000    0.88460   0.52820   0.27060   Biso      1.000     H          0.12183499999999998           
         H8        1.0000    0.20880   0.46400   0.41090   Biso      1.000     H          0.121874  
         H9        1.0000    0.78940   0.62120   0.06140   Biso      1.000     H          0.110471  
         H10       1.0000    0.01030   0.63150   0.00740   Biso      1.000     H          0.11778499999999999           
         H11       1.0000    0.46450   0.89370   0.28370   Biso      1.000     H          0.12466700000000001           
         H12       1.0000    0.10630   0.53550   0.21630   Biso      1.000     H          0.12466700000000001           
         H13       1.0000    0.01880   0.44100   0.38480   Biso      1.000     H          0.12166500000000001           
         H14       1.0000    0.98120   0.55900   0.61520   Biso      1.000     H          0.12166500000000001           
         H15       1.0000    0.21060   0.37880   0.93860   Biso      1.000     H          0.110471  
         H16       1.0000    0.79120   0.53600   0.58910   Biso      1.000     H          0.121874  
         H17       1.0000    0.11540   0.47180   0.72940   Biso      1.000     H          0.12183499999999998           
         H18       1.0000    0.53550   0.10630   0.71630   Biso      1.000     H          0.12466700000000001           
         H19       1.0000    0.98970   0.36850   0.99260   Biso      1.000     H          0.11778499999999999           
         H20       1.0000    0.63150   0.01030   0.50740   Biso      1.000     H          0.11778499999999999           
         H21       1.0000    0.62120   0.78940   0.56140   Biso      1.000     H          0.110471  
         H22       1.0000    0.46400   0.20880   0.91090   Biso      1.000     H          0.121874  
         H23       1.0000    0.52820   0.88460   0.77060   Biso      1.000     H          0.12183499999999998           
         H24       1.0000    0.55900   0.98120   0.11520   Biso      1.000     H          0.12166500000000001           
         O1        1.0000    0.52877   0.64923   0.77593   Biso      1.000     O          -0.659981           
         O2        1.0000    0.78780   0.42246   0.40796   Biso      1.000     O          -0.6434439999999999           
         O3        1.0000    0.40047   0.42647   0.83890   Biso      1.000     O          -0.7041649999999999           
         O4        1.0000    0.64555   0.51013   0.50789   Biso      1.000     O          -0.740239           
         O5        1.0000    0.35077   0.47123   0.72407   Biso      1.000     O          -0.659981           
         O6        1.0000    0.53164   0.31462   0.61365   Biso      1.000     O          -0.650104           
         O7        1.0000    0.60570   0.25250   0.49952   Biso      1.000     O          -0.698047           
         O8        1.0000    0.57754   0.21220   0.09204   Biso      1.000     O          -0.6434439999999999           
         O9        1.0000    0.57353   0.59953   0.66110   Biso      1.000     O          -0.7041649999999999           
         O10       1.0000    0.48987   0.35445   0.99211   Biso      1.000     O          -0.74024  
         O11       1.0000    0.31462   0.53164   0.11365   Biso      1.000     O          -0.650104           
         O12       1.0000    0.74750   0.39430   0.00048   Biso      1.000     O          -0.698047           
         O13       1.0000    0.21220   0.57754   0.59204   Biso      1.000     O          -0.6434439999999999           
         O14       1.0000    0.59953   0.57353   0.16110   Biso      1.000     O          -0.7041649999999999           
         O15       1.0000    0.35445   0.48987   0.49211   Biso      1.000     O          -0.740239           
         O16       1.0000    0.64923   0.52877   0.27593   Biso      1.000     O          -0.659981           
         O17       1.0000    0.46836   0.68538   0.38635   Biso      1.000     O          -0.650104           
         O18       1.0000    0.39430   0.74750   0.50048   Biso      1.000     O          -0.698047           
         O19       1.0000    0.42246   0.78780   0.90796   Biso      1.000     O          -0.6434439999999999           
         O20       1.0000    0.42647   0.40047   0.33890   Biso      1.000     O          -0.7041649999999999           
         O21       1.0000    0.51013   0.64555   0.00789   Biso      1.000     O          -0.74024  
         O22       1.0000    0.47123   0.35077   0.22407   Biso      1.000     O          -0.659981           
         O23       1.0000    0.25250   0.60570   0.99952   Biso      1.000     O          -0.698047           
         O24       1.0000    0.68538   0.46836   0.88635   Biso      1.000     O          -0.650104 