
##########################################################################
#               Crystallographic Information Format file
#               Produced by PyCifRW module
#
#  This is a CIF file.  CIF has been adopted by the International
#  Union of Crystallography as the standard for data archiving and
#  transmission.
#
#  For information on this file format, follow the CIF links at
#  http://www.iucr.org
##########################################################################

data_image0

_cell_length_a                          13.057
_cell_length_b                          13.2639
_cell_length_c                          19.966
_cell_angle_alpha                       82.1573
_cell_angle_beta                        73.9049
_cell_angle_gamma                       60.5147
_symmetry_space_group_name_H-M          'P 1'
_symmetry_int_tables_number             1
loop_
  _symmetry_equiv_pos_as_xyz
         'x, y, z' 
loop_
  _atom_site_label
  _atom_site_occupancy
  _atom_site_fract_x
  _atom_site_fract_y
  _atom_site_fract_z
  _atom_site_thermal_displace_type
  _atom_site_B_iso_or_equiv
  _atom_site_type_symbol
  _atom_site_charge
         C1        1.0000    0.80700   0.44040   0.71130   Biso      1.000     C          -0.242424           
         C2        1.0000    0.89540   0.35740   0.86800   Biso      1.000     C          -0.193921           
         C3        1.0000    0.95300   0.37120   0.91110   Biso      1.000     C          0.038211  
         C4        1.0000    0.75260   0.44040   0.78870   Biso      1.000     C          -0.243228           
         C5        1.0000    0.97350   0.22780   0.45700   Biso      1.000     C          0.053334  
         C6        1.0000    0.98170   0.32820   0.45330   Biso      1.000     C          -0.217531           
         C7        1.0000    0.04350   0.34020   0.49500   Biso      1.000     C          0.163475  
         C8        1.0000    0.09180   0.25080   0.53920   Biso      1.000     C          -0.224235           
         C9        1.0000    0.07850   0.15340   0.54190   Biso      1.000     C          0.027717  
         C10       1.0000    0.05999   0.44642   0.49070   Biso      1.000     C          -0.236197           
         C11       1.0000    0.81790   0.45180   0.83670   Biso      1.000     C          0.153383  
         C12       1.0000    0.79680   0.51460   0.11700   Biso      1.000     C          0.058057  
         C13       1.0000    0.59790   0.67400   0.15600   Biso      1.000     C          0.154713  
         C14       1.0000    0.62940   0.73280   0.09860   Biso      1.000     C          -0.231172           
         C15       1.0000    0.74430   0.68040   0.05380   Biso      1.000     C          0.029362  
         C16       1.0000    0.47690   0.72580   0.20940   Biso      1.000     C          -0.240339           
         C17       1.0000    0.23990   0.91960   0.40110   Biso      1.000     C          0.053664  
         C18       1.0000    0.32870   0.88980   0.34030   Biso      1.000     C          -0.2253   
         C19       1.0000    0.30180   0.89540   0.27670   Biso      1.000     C          0.155033  
         C20       1.0000    0.18130   0.94440   0.27860   Biso      1.000     C          -0.23647  
         C21       1.0000    0.09490   0.97600   0.34240   Biso      1.000     C          0.026757  
         C22       1.0000    0.68480   0.56060   0.16360   Biso      1.000     C          -0.238822           
         C23       1.0000    0.40230   0.85420   0.21030   Biso      1.000     C          -0.236781           
         C24       1.0000    0.79800   0.56020   0.84840   Biso      1.000     C          -0.224559           
         C25       1.0000    0.74350   0.85420   0.28970   Biso      1.000     C          -0.238438           
         C26       1.0000    0.73030   0.45180   0.66330   Biso      1.000     C          0.151487  
         C27       1.0000    0.74720   0.35740   0.63200   Biso      1.000     C          -0.195886           
         C28       1.0000    0.67580   0.37120   0.58890   Biso      1.000     C          0.042065  
         C29       1.0000    0.79870   0.22780   0.04300   Biso      1.000     C          0.053166  
         C30       1.0000    0.69010   0.32820   0.04670   Biso      1.000     C          -0.219518           
         C31       1.0000    0.61630   0.34020   0.00500   Biso      1.000     C          0.165107  
         C32       1.0000    0.65740   0.25080   0.96080   Biso      1.000     C          -0.224749           
         C33       1.0000    0.76810   0.15340   0.95810   Biso      1.000     C          0.027909  
         C34       1.0000    0.49359   0.44642   0.00930   Biso      1.000     C          -0.236448           
         C35       1.0000    0.85560   0.57400   0.89140   Biso      1.000     C          0.035365  
         C36       1.0000    0.68860   0.51460   0.38300   Biso      1.000     C          0.059127  
         C37       1.0000    0.72810   0.67400   0.34400   Biso      1.000     C          0.155009  
         C38       1.0000    0.63780   0.73280   0.40140   Biso      1.000     C          -0.229118           
         C39       1.0000    0.57530   0.68040   0.44620   Biso      1.000     C          0.026781  
         C40       1.0000    0.79730   0.72580   0.29060   Biso      1.000     C          -0.240914           
         C41       1.0000    0.84050   0.91960   0.09890   Biso      1.000     C          0.050607  
         C42       1.0000    0.78150   0.88980   0.15970   Biso      1.000     C          -0.227907           
         C43       1.0000    0.80280   0.89540   0.22330   Biso      1.000     C          0.158008  
         C44       1.0000    0.87430   0.94440   0.22140   Biso      1.000     C          -0.23689  
         C45       1.0000    0.92910   0.97600   0.15760   Biso      1.000     C          0.028214  
         C46       1.0000    0.75460   0.56060   0.33640   Biso      1.000     C          -0.238988           
         C47       1.0000    0.42960   0.42600   0.39140   Biso      1.000     C          0.037019  
         C48       1.0000    0.35820   0.43980   0.34840   Biso      1.000     C          -0.224512           
         C49       1.0000    0.26970   0.54820   0.33670   Biso      1.000     C          0.151492  
         C50       1.0000    0.04700   0.62880   0.08890   Biso      1.000     C          0.038211  
         C51       1.0000    0.24740   0.55960   0.21130   Biso      1.000     C          -0.243227           
         C52       1.0000    0.02650   0.77220   0.54300   Biso      1.000     C          0.053333  
         C53       1.0000    0.01830   0.67180   0.54670   Biso      1.000     C          -0.21753  
         C54       1.0000    0.95650   0.65980   0.50500   Biso      1.000     C          0.163477  
         C55       1.0000    0.90820   0.74920   0.46080   Biso      1.000     C          -0.224237           
         C56       1.0000    0.92150   0.84660   0.45810   Biso      1.000     C          0.02772   
         C57       1.0000    0.94001   0.55358   0.50930   Biso      1.000     C          -0.236198           
         C58       1.0000    0.20320   0.48540   0.88300   Biso      1.000     C          0.058076  
         C59       1.0000    0.10460   0.64260   0.13200   Biso      1.000     C          -0.193912           
         C60       1.0000    0.31520   0.43940   0.83640   Biso      1.000     C          -0.238804           
         C61       1.0000    0.37060   0.26720   0.90140   Biso      1.000     C          -0.231151           
         C62       1.0000    0.25570   0.31960   0.94620   Biso      1.000     C          0.029387  
         C63       1.0000    0.52310   0.27420   0.79060   Biso      1.000     C          -0.240328           
         C64       1.0000    0.76010   0.08040   0.59890   Biso      1.000     C          0.05367   
         C65       1.0000    0.67130   0.11020   0.65970   Biso      1.000     C          -0.225296           
         C66       1.0000    0.69820   0.10460   0.72330   Biso      1.000     C          0.155029  
         C67       1.0000    0.81870   0.05560   0.72140   Biso      1.000     C          -0.236464           
         C68       1.0000    0.90510   0.02400   0.65760   Biso      1.000     C          0.02676   
         C69       1.0000    0.59770   0.14580   0.78970   Biso      1.000     C          -0.236783           
         C70       1.0000    0.40210   0.32600   0.84400   Biso      1.000     C          0.154707  
         C71       1.0000    0.18210   0.54820   0.16330   Biso      1.000     C          0.15338   
         C72       1.0000    0.20200   0.43980   0.15160   Biso      1.000     C          -0.224554           
         C73       1.0000    0.14440   0.42600   0.10860   Biso      1.000     C          0.035376  
         C74       1.0000    0.25280   0.64260   0.36800   Biso      1.000     C          -0.195888           
         C75       1.0000    0.32420   0.62880   0.41110   Biso      1.000     C          0.042067  
         C76       1.0000    0.19300   0.55960   0.28870   Biso      1.000     C          -0.242427           
         C77       1.0000    0.20130   0.77220   0.95700   Biso      1.000     C          0.053168  
         C78       1.0000    0.30990   0.67180   0.95330   Biso      1.000     C          -0.219519           
         C79       1.0000    0.38370   0.65980   0.99500   Biso      1.000     C          0.165093  
         C80       1.0000    0.34260   0.74920   0.03920   Biso      1.000     C          -0.224745           
         C81       1.0000    0.23190   0.84660   0.04190   Biso      1.000     C          0.027898  
         C82       1.0000    0.50641   0.55358   0.99070   Biso      1.000     C          -0.236448           
         C83       1.0000    0.31140   0.48540   0.61700   Biso      1.000     C          0.059138  
         C84       1.0000    0.24540   0.43940   0.66360   Biso      1.000     C          -0.238977           
         C85       1.0000    0.27190   0.32600   0.65600   Biso      1.000     C          0.154995  
         C86       1.0000    0.36220   0.26720   0.59860   Biso      1.000     C          -0.229103           
         C87       1.0000    0.42470   0.31960   0.55380   Biso      1.000     C          0.026792  
         C88       1.0000    0.20270   0.27420   0.70940   Biso      1.000     C          -0.240905           
         C89       1.0000    0.15950   0.08040   0.90110   Biso      1.000     C          0.050612  
         C90       1.0000    0.21850   0.11020   0.84030   Biso      1.000     C          -0.227899           
         C91       1.0000    0.19720   0.10460   0.77670   Biso      1.000     C          0.158009  
         C92       1.0000    0.12570   0.05560   0.77860   Biso      1.000     C          -0.236888           
         C93       1.0000    0.07090   0.02400   0.84240   Biso      1.000     C          0.028223  
         C94       1.0000    0.25650   0.14580   0.71030   Biso      1.000     C          -0.238441           
         C95       1.0000    0.64180   0.56020   0.65160   Biso      1.000     C          -0.224512           
         C96       1.0000    0.57040   0.57400   0.60860   Biso      1.000     C          0.037021  
         Cu1       1.0000    0.50000   0.50000   0.50000   Biso      1.000     Cu          0.289531  
         Cu2       1.0000    0.00000   0.50000   0.00000   Biso      1.000     Cu          0.289838  
         Cu3       1.0000    0.00000   0.00000   0.00000   Biso      1.000     Cu          0.272753  
         Cu4       1.0000    0.00000   0.00000   0.50000   Biso      1.000     Cu          0.273161  
         H1        1.0000    0.98650   0.99000   0.65790   Biso      1.000     H          0.068577  
         H2        1.0000    0.84220   0.64740   0.89940   Biso      1.000     H          0.083515  
         H3        1.0000    0.74540   0.62440   0.82700   Biso      1.000     H          0.116997  
         H4        1.0000    0.90890   0.28380   0.86010   Biso      1.000     H          0.118243  
         H5        1.0000    0.00560   0.30700   0.93240   Biso      1.000     H          0.077118  
         H6        1.0000    0.67010   0.50360   0.79870   Biso      1.000     H          0.105327  
         H7        1.0000    0.74840   0.36880   0.80010   Biso      1.000     H          0.106862  
         H8        1.0000    0.93580   0.21880   0.42670   Biso      1.000     H          0.073943  
         H9        1.0000    0.94590   0.38720   0.42300   Biso      1.000     H          0.114212  
         H10       1.0000    0.13430   0.25580   0.56800   Biso      1.000     H          0.11567   
         H11       1.0000    0.11310   0.09360   0.57210   Biso      1.000     H          0.074639  
         H12       1.0000    0.10310   0.45380   0.44380   Biso      1.000     H          0.116676  
         H13       1.0000    0.75380   0.87900   0.32970   Biso      1.000     H          0.106919  
         H14       1.0000    0.85340   0.43840   0.12350   Biso      1.000     H          0.077693  
         H15       1.0000    0.66740   0.51560   0.20030   Biso      1.000     H          0.117938  
         H16       1.0000    0.84330   0.04320   0.76260   Biso      1.000     H          0.11615   
         H17       1.0000    0.76320   0.72200   0.01550   Biso      1.000     H          0.074294  
         H18       1.0000    0.49210   0.70080   0.25520   Biso      1.000     H          0.1204    
         H19       1.0000    0.42900   0.69320   0.20150   Biso      1.000     H          0.113715  
         H20       1.0000    0.26200   0.91120   0.44280   Biso      1.000     H          0.072476  
         H21       1.0000    0.40830   0.86540   0.34150   Biso      1.000     H          0.108635  
         H22       1.0000    0.10840   0.43760   0.52240   Biso      1.000     H          0.113767  
         H23       1.0000    0.65730   0.88880   0.29310   Biso      1.000     H          0.109388  
         H24       1.0000    0.88650   0.95680   0.26260   Biso      1.000     H          0.116062  
         H25       1.0000    0.15670   0.95680   0.23740   Biso      1.000     H          0.116152  
         H26       1.0000    0.51040   0.64740   0.60060   Biso      1.000     H          0.082463  
         H27       1.0000    0.63020   0.62440   0.67300   Biso      1.000     H          0.116553  
         H28       1.0000    0.80730   0.28380   0.63990   Biso      1.000     H          0.119589  
         H29       1.0000    0.68740   0.30700   0.56760   Biso      1.000     H          0.075095  
         H30       1.0000    0.82630   0.50360   0.70130   Biso      1.000     H          0.105357  
         H31       1.0000    0.88280   0.36880   0.69990   Biso      1.000     H          0.106523  
         H32       1.0000    0.84540   0.21880   0.07330   Biso      1.000     H          0.073179  
         H33       1.0000    0.66690   0.38720   0.07700   Biso      1.000     H          0.114976  
         H34       1.0000    0.60990   0.25580   0.93200   Biso      1.000     H          0.115606  
         H35       1.0000    0.97650   0.01000   0.15790   Biso      1.000     H          0.068078  
         H36       1.0000    0.79330   0.09360   0.92790   Biso      1.000     H          0.075289  
         H37       1.0000    0.44310   0.45380   0.05620   Biso      1.000     H          0.117247  
         H38       1.0000    0.70820   0.43840   0.37650   Biso      1.000     H          0.077045  
         H39       1.0000    0.81700   0.51560   0.29970   Biso      1.000     H          0.117463  
         H40       1.0000    0.61840   0.80820   0.41010   Biso      1.000     H          0.114367  
         H41       1.0000    0.51480   0.72200   0.48450   Biso      1.000     H          0.075097  
         H42       1.0000    0.80710   0.70080   0.24480   Biso      1.000     H          0.121131  
         H43       1.0000    0.87780   0.69320   0.29850   Biso      1.000     H          0.113568  
         H44       1.0000    0.82680   0.91120   0.05720   Biso      1.000     H          0.074593  
         H45       1.0000    0.72630   0.86540   0.15850   Biso      1.000     H          0.11067   
         H46       1.0000    0.45400   0.43760   0.97760   Biso      1.000     H          0.113335  
         H47       1.0000    0.01350   0.01000   0.34210   Biso      1.000     H          0.068576  
         H48       1.0000    0.57340   0.80820   0.08990   Biso      1.000     H          0.114438  
         H49       1.0000    0.36720   0.87900   0.17030   Biso      1.000     H          0.106932  
         H50       1.0000    0.25460   0.37560   0.17300   Biso      1.000     H          0.116995  
         H51       1.0000    0.09110   0.71620   0.13990   Biso      1.000     H          0.118243  
         H52       1.0000    0.99440   0.69300   0.06760   Biso      1.000     H          0.077119  
         H53       1.0000    0.32990   0.49640   0.20130   Biso      1.000     H          0.105327  
         H54       1.0000    0.25160   0.63120   0.19990   Biso      1.000     H          0.106861  
         H55       1.0000    0.45390   0.88880   0.20690   Biso      1.000     H          0.10919   
         H56       1.0000    0.05410   0.61280   0.57700   Biso      1.000     H          0.114212  
         H57       1.0000    0.86570   0.74420   0.43200   Biso      1.000     H          0.115671  
         H58       1.0000    0.88690   0.90640   0.42790   Biso      1.000     H          0.074639  
         H59       1.0000    0.89160   0.56240   0.47760   Biso      1.000     H          0.113767  
         H60       1.0000    0.89690   0.54620   0.55620   Biso      1.000     H          0.116677  
         H61       1.0000    0.14660   0.56160   0.87650   Biso      1.000     H          0.077687  
         H62       1.0000    0.33260   0.48440   0.79970   Biso      1.000     H          0.117935  
         H63       1.0000    0.42660   0.19180   0.91010   Biso      1.000     H          0.114429  
         H64       1.0000    0.23680   0.27800   0.98450   Biso      1.000     H          0.074293  
         H65       1.0000    0.50790   0.29920   0.74480   Biso      1.000     H          0.120395  
         H66       1.0000    0.57100   0.30680   0.79850   Biso      1.000     H          0.113714  
         H67       1.0000    0.73800   0.08880   0.55720   Biso      1.000     H          0.072476  
         H68       1.0000    0.59170   0.13460   0.65850   Biso      1.000     H          0.108633  
         H69       1.0000    0.63280   0.12100   0.82970   Biso      1.000     H          0.106929  
         H70       1.0000    0.54610   0.11120   0.79310   Biso      1.000     H          0.109187  
         H71       1.0000    0.15780   0.35260   0.10060   Biso      1.000     H          0.083516  
         H72       1.0000    0.24620   0.12100   0.67030   Biso      1.000     H          0.106916  
         H73       1.0000    0.06420   0.78120   0.57330   Biso      1.000     H          0.073942  
         H74       1.0000    0.02350   0.99000   0.84210   Biso      1.000     H          0.068076  
         H75       1.0000    0.48960   0.35260   0.39940   Biso      1.000     H          0.082463  
         H76       1.0000    0.36980   0.37560   0.32700   Biso      1.000     H          0.116553  
         H77       1.0000    0.19270   0.71620   0.36010   Biso      1.000     H          0.119589  
         H78       1.0000    0.34270   0.11120   0.70690   Biso      1.000     H          0.109387  
         H79       1.0000    0.17370   0.49640   0.29870   Biso      1.000     H          0.105356  
         H80       1.0000    0.11720   0.63120   0.30010   Biso      1.000     H          0.106523  
         H81       1.0000    0.15460   0.78120   0.92670   Biso      1.000     H          0.073179  
         H82       1.0000    0.33310   0.61280   0.92300   Biso      1.000     H          0.114976  
         H83       1.0000    0.39010   0.74420   0.06800   Biso      1.000     H          0.115608  
         H84       1.0000    0.20670   0.90640   0.07210   Biso      1.000     H          0.075291  
         H85       1.0000    0.31260   0.69300   0.43240   Biso      1.000     H          0.075095  
         H86       1.0000    0.55690   0.54620   0.94380   Biso      1.000     H          0.117247  
         H87       1.0000    0.54600   0.56240   0.02240   Biso      1.000     H          0.113336  
         H88       1.0000    0.11350   0.04320   0.73740   Biso      1.000     H          0.11606   
         H89       1.0000    0.27370   0.13460   0.84150   Biso      1.000     H          0.110667  
         H90       1.0000    0.12220   0.30680   0.70150   Biso      1.000     H          0.113566  
         H91       1.0000    0.19290   0.29920   0.75520   Biso      1.000     H          0.121126  
         H92       1.0000    0.17320   0.08880   0.94280   Biso      1.000     H          0.074594  
         H93       1.0000    0.38160   0.19180   0.58990   Biso      1.000     H          0.114362  
         H94       1.0000    0.18300   0.48440   0.70030   Biso      1.000     H          0.117462  
         H95       1.0000    0.29180   0.56160   0.62350   Biso      1.000     H          0.077039  
         H96       1.0000    0.48520   0.27800   0.51550   Biso      1.000     H          0.075096  
         N1        1.0000    0.41250   0.52060   0.42280   Biso      1.000     N          -0.244776           
         N2        1.0000    0.98293   0.85734   0.49800   Biso      1.000     N          -0.217333           
         N3        1.0000    0.06690   0.52060   0.07720   Biso      1.000     N          -0.244892           
         N4        1.0000    0.08272   0.03976   0.90311   Biso      1.000     N          -0.226497           
         N5        1.0000    0.40125   0.42730   0.56346   Biso      1.000     N          -0.211606           
         N6        1.0000    0.15973   0.85734   0.00200   Biso      1.000     N          -0.2168   
         N7        1.0000    0.12248   0.96024   0.40311   Biso      1.000     N          -0.225648           
         N8        1.0000    0.59875   0.57270   0.43654   Biso      1.000     N          -0.211585           
         N9        1.0000    0.01707   0.14266   0.50200   Biso      1.000     N          -0.217335           
         N10       1.0000    0.93310   0.47940   0.92280   Biso      1.000     N          -0.244885           
         N11       1.0000    0.91728   0.96024   0.09689   Biso      1.000     N          -0.226494           
         N12       1.0000    0.84027   0.14266   0.99800   Biso      1.000     N          -0.216791           
         N13       1.0000    0.58750   0.47940   0.57720   Biso      1.000     N          -0.244774           
         N14       1.0000    0.17145   0.42730   0.93654   Biso      1.000     N          -0.211402           
         N15       1.0000    0.82855   0.57270   0.06346   Biso      1.000     N          -0.211377           
         N16       1.0000    0.87752   0.03976   0.59689   Biso      1.000     N          -0.225653 