
##########################################################################
#               Crystallographic Information Format file
#               Produced by PyCifRW module
#
#  This is a CIF file.  CIF has been adopted by the International
#  Union of Crystallography as the standard for data archiving and
#  transmission.
#
#  For information on this file format, follow the CIF links at
#  http://www.iucr.org
##########################################################################

data_image0

_cell_length_a                          18.64
_cell_length_b                          22.795
_cell_length_c                          13.281
_cell_angle_alpha                       90
_cell_angle_beta                        130.484
_cell_angle_gamma                       90
_symmetry_space_group_name_H-M          'P 1'
_symmetry_int_tables_number             1
loop_
  _symmetry_equiv_pos_as_xyz
         'x, y, z' 
loop_
  _atom_site_label
  _atom_site_occupancy
  _atom_site_fract_x
  _atom_site_fract_y
  _atom_site_fract_z
  _atom_site_thermal_displace_type
  _atom_site_B_iso_or_equiv
  _atom_site_type_symbol
  _atom_site_charge
         C1        1.0000    0.46641   0.67428   0.49530   Biso      1.000     C          -0.02274  
         C2        1.0000    0.88444   0.04957   0.69030   Biso      1.000     C          -0.076831           
         C3        1.0000    0.82456   0.01014   0.00420   Biso      1.000     C          -0.076623           
         C4        1.0000    0.80808   0.08711   0.60960   Biso      1.000     C          -0.102312           
         C5        1.0000    0.74089   0.07616   0.47620   Biso      1.000     C          -0.022446           
         C6        1.0000    0.65931   0.11697   0.38860   Biso      1.000     C          0.592957  
         C7        1.0000    0.04750   0.21620   0.93170   Biso      1.000     C          0.617702  
         C8        1.0000    0.02950   0.81406   0.97690   Biso      1.000     C          -0.102598           
         C9        1.0000    0.03900   0.85192   0.90570   Biso      1.000     C          -0.08652  
         C10       1.0000    0.98683   0.90309   0.85050   Biso      1.000     C          -0.195601           
         C11       1.0000    0.74867   0.97332   0.92380   Biso      1.000     C          -0.092541           
         C12       1.0000    0.92530   0.91457   0.87290   Biso      1.000     C          -0.082571           
         C13       1.0000    0.91510   0.87666   0.94400   Biso      1.000     C          -0.105459           
         C14       1.0000    0.96641   0.82572   0.99530   Biso      1.000     C          -0.022735           
         C15       1.0000    0.89442   0.00020   0.13840   Biso      1.000     C          -0.192789           
         C16       1.0000    0.95250   0.78380   0.06830   Biso      1.000     C          0.617702  
         C17       1.0000    0.10558   0.00020   0.36160   Biso      1.000     C          -0.19279  
         C18       1.0000    0.17544   0.01014   0.49580   Biso      1.000     C          -0.076622           
         C19       1.0000    0.07470   0.08543   0.12710   Biso      1.000     C          -0.082572           
         C20       1.0000    0.24867   0.52668   0.42380   Biso      1.000     C          -0.092546           
         C21       1.0000    0.32456   0.48986   0.50420   Biso      1.000     C          -0.076618           
         C22       1.0000    0.39442   0.49980   0.63840   Biso      1.000     C          -0.192789           
         C23       1.0000    0.08490   0.12334   0.05600   Biso      1.000     C          -0.105459           
         C24       1.0000    0.38444   0.54957   0.69030   Biso      1.000     C          -0.076831           
         C25       1.0000    0.54750   0.71620   0.93170   Biso      1.000     C          0.617703  
         C26       1.0000    0.30808   0.58711   0.60960   Biso      1.000     C          -0.102312           
         C27       1.0000    0.96641   0.17428   0.49530   Biso      1.000     C          -0.02274  
         C28       1.0000    0.15931   0.61697   0.38860   Biso      1.000     C          0.592957  
         C29       1.0000    0.53359   0.67428   0.00470   Biso      1.000     C          -0.02274  
         C30       1.0000    0.11556   0.95043   0.30970   Biso      1.000     C          -0.076831           
         C31       1.0000    0.52950   0.31406   0.97690   Biso      1.000     C          -0.102599           
         C32       1.0000    0.89442   0.99980   0.63840   Biso      1.000     C          -0.19279  
         C33       1.0000    0.74867   0.02668   0.42380   Biso      1.000     C          -0.092543           
         C34       1.0000    0.95250   0.21620   0.56830   Biso      1.000     C          0.617703  
         C35       1.0000    0.01317   0.09691   0.14950   Biso      1.000     C          -0.195602           
         C36       1.0000    0.96100   0.14808   0.09430   Biso      1.000     C          -0.086522           
         C37       1.0000    0.92530   0.08543   0.37290   Biso      1.000     C          -0.082572           
         C38       1.0000    0.97050   0.18594   0.02310   Biso      1.000     C          -0.102595           
         C39       1.0000    0.24867   0.47332   0.92380   Biso      1.000     C          -0.092545           
         C40       1.0000    0.98683   0.09691   0.35050   Biso      1.000     C          -0.195602           
         C41       1.0000    0.32456   0.51014   0.00420   Biso      1.000     C          -0.076618           
         C42       1.0000    0.39442   0.50020   0.13840   Biso      1.000     C          -0.192789           
         C43       1.0000    0.03900   0.14808   0.40570   Biso      1.000     C          -0.086522           
         C44       1.0000    0.38444   0.45043   0.19030   Biso      1.000     C          -0.076831           
         C45       1.0000    0.30808   0.41289   0.10960   Biso      1.000     C          -0.102312           
         C46       1.0000    0.24089   0.42384   0.97620   Biso      1.000     C          -0.022444           
         C47       1.0000    0.82456   0.98986   0.50420   Biso      1.000     C          -0.076617           
         C48       1.0000    0.15931   0.38303   0.88860   Biso      1.000     C          0.592957  
         C49       1.0000    0.52950   0.68594   0.47690   Biso      1.000     C          -0.102595           
         C50       1.0000    0.53900   0.64808   0.40570   Biso      1.000     C          -0.086521           
         C51       1.0000    0.48683   0.59691   0.35050   Biso      1.000     C          -0.195601           
         C52       1.0000    0.65931   0.88303   0.88860   Biso      1.000     C          0.592957  
         C53       1.0000    0.42530   0.58543   0.37290   Biso      1.000     C          -0.082571           
         C54       1.0000    0.74089   0.92384   0.97620   Biso      1.000     C          -0.022447           
         C55       1.0000    0.41510   0.62334   0.44400   Biso      1.000     C          -0.105457           
         C56       1.0000    0.80808   0.91289   0.10960   Biso      1.000     C          -0.10231  
         C57       1.0000    0.45250   0.71620   0.56830   Biso      1.000     C          0.617703  
         C58       1.0000    0.34069   0.88303   0.61140   Biso      1.000     C          0.592957  
         C59       1.0000    0.25911   0.92384   0.52380   Biso      1.000     C          -0.022449           
         C60       1.0000    0.19192   0.91289   0.39040   Biso      1.000     C          -0.10231  
         C61       1.0000    0.88444   0.95043   0.19030   Biso      1.000     C          -0.076831           
         C62       1.0000    0.02950   0.18594   0.47690   Biso      1.000     C          -0.102592           
         C63       1.0000    0.58490   0.62334   0.05600   Biso      1.000     C          -0.105458           
         C64       1.0000    0.24089   0.57616   0.47620   Biso      1.000     C          -0.022444           
         C65       1.0000    0.48683   0.40309   0.85050   Biso      1.000     C          -0.195603           
         C66       1.0000    0.01317   0.90309   0.64950   Biso      1.000     C          -0.195603           
         C67       1.0000    0.69192   0.41289   0.39040   Biso      1.000     C          -0.102312           
         C68       1.0000    0.07470   0.91457   0.62710   Biso      1.000     C          -0.08257  
         C69       1.0000    0.08490   0.87666   0.55600   Biso      1.000     C          -0.105459           
         C70       1.0000    0.03359   0.82572   0.50470   Biso      1.000     C          -0.022738           
         C71       1.0000    0.53900   0.35192   0.90570   Biso      1.000     C          -0.086518           
         C72       1.0000    0.61556   0.45043   0.30970   Biso      1.000     C          -0.076831           
         C73       1.0000    0.75133   0.52668   0.07620   Biso      1.000     C          -0.092545           
         C74       1.0000    0.67544   0.48986   0.99580   Biso      1.000     C          -0.076618           
         C75       1.0000    0.60558   0.49980   0.86160   Biso      1.000     C          -0.192789           
         C76       1.0000    0.60558   0.50020   0.36160   Biso      1.000     C          -0.19279  
         C77       1.0000    0.61556   0.54957   0.80970   Biso      1.000     C          -0.076831           
         C78       1.0000    0.67544   0.51014   0.49580   Biso      1.000     C          -0.076622           
         C79       1.0000    0.69192   0.58711   0.89040   Biso      1.000     C          -0.102312           
         C80       1.0000    0.75911   0.57616   0.02380   Biso      1.000     C          -0.022444           
         C81       1.0000    0.84069   0.61697   0.11140   Biso      1.000     C          0.592957  
         C82       1.0000    0.47050   0.31406   0.52310   Biso      1.000     C          -0.102598           
         C83       1.0000    0.75133   0.47332   0.57620   Biso      1.000     C          -0.092541           
         C84       1.0000    0.46100   0.35192   0.59430   Biso      1.000     C          -0.086521           
         C85       1.0000    0.51317   0.40309   0.64950   Biso      1.000     C          -0.195601           
         C86       1.0000    0.57470   0.41457   0.62710   Biso      1.000     C          -0.082571           
         C87       1.0000    0.03359   0.17428   0.00470   Biso      1.000     C          -0.022735           
         C88       1.0000    0.58490   0.37666   0.55600   Biso      1.000     C          -0.105459           
         C89       1.0000    0.53359   0.32572   0.50470   Biso      1.000     C          -0.022735           
         C90       1.0000    0.54750   0.28380   0.43170   Biso      1.000     C          0.617702  
         C91       1.0000    0.96100   0.85192   0.59430   Biso      1.000     C          -0.086522           
         C92       1.0000    0.75911   0.42384   0.52380   Biso      1.000     C          -0.022445           
         C93       1.0000    0.04750   0.78380   0.43170   Biso      1.000     C          0.617703  
         C94       1.0000    0.25133   0.02668   0.07620   Biso      1.000     C          -0.092545           
         C95       1.0000    0.42530   0.41457   0.87290   Biso      1.000     C          -0.08257  
         C96       1.0000    0.57470   0.58543   0.12710   Biso      1.000     C          -0.082571           
         C97       1.0000    0.41510   0.37666   0.94400   Biso      1.000     C          -0.105459           
         C98       1.0000    0.46641   0.32572   0.99530   Biso      1.000     C          -0.022735           
         C99       1.0000    0.45250   0.28380   0.06830   Biso      1.000     C          0.617702  
         C100      1.0000    0.25133   0.97332   0.57620   Biso      1.000     C          -0.092539           
         C101      1.0000    0.51317   0.59691   0.14950   Biso      1.000     C          -0.195602           
         C102      1.0000    0.46100   0.64808   0.09430   Biso      1.000     C          -0.086522           
         C103      1.0000    0.97050   0.81406   0.52310   Biso      1.000     C          -0.102592           
         C104      1.0000    0.17544   0.98986   0.99580   Biso      1.000     C          -0.076618           
         C105      1.0000    0.10558   0.99980   0.86160   Biso      1.000     C          -0.192789           
         C106      1.0000    0.47050   0.68594   0.02310   Biso      1.000     C          -0.102592           
         C107      1.0000    0.11556   0.04957   0.80970   Biso      1.000     C          -0.076831           
         C108      1.0000    0.91510   0.12334   0.44400   Biso      1.000     C          -0.105457           
         C109      1.0000    0.84069   0.38303   0.61140   Biso      1.000     C          0.592957  
         C110      1.0000    0.34069   0.11697   0.11140   Biso      1.000     C          0.592957  
         C111      1.0000    0.25911   0.07616   0.02380   Biso      1.000     C          -0.022446           
         C112      1.0000    0.19192   0.08711   0.89040   Biso      1.000     C          -0.10231  
         Cd1       1.0000    0.00000   0.31620   0.75000   Biso      1.000     Cd          0.998996  
         Cd2       1.0000    0.75000   0.75000   0.00000   Biso      1.000     Cd          1.160745  
         Cd3       1.0000    0.25000   0.75000   0.50000   Biso      1.000     Cd          1.160745  
         Cd4       1.0000    0.25000   0.25000   0.00000   Biso      1.000     Cd          1.160745  
         Cd5       1.0000    0.50000   0.81620   0.75000   Biso      1.000     Cd          0.998996  
         Cd6       1.0000    0.00000   0.68380   0.25000   Biso      1.000     Cd          0.998996  
         Cd7       1.0000    0.50000   0.18380   0.25000   Biso      1.000     Cd          0.998996  
         Cd8       1.0000    0.75000   0.25000   0.50000   Biso      1.000     Cd          1.160745  
         H1        1.0000    0.62690   0.61420   0.04280   Biso      1.000     H          0.104552  
         H2        1.0000    0.88980   0.05120   0.33900   Biso      1.000     H          0.099057  
         H3        1.0000    0.69760   0.38020   0.35400   Biso      1.000     H          0.109303  
         H4        1.0000    0.79740   0.48170   0.66600   Biso      1.000     H          0.1216    
         H5        1.0000    0.08200   0.15710   0.39410   Biso      1.000     H          0.104022  
         H6        1.0000    0.70260   0.98170   0.83400   Biso      1.000     H          0.121599  
         H7        1.0000    0.43390   0.71980   0.98700   Biso      1.000     H          0.116795  
         H8        1.0000    0.67090   0.54300   0.53290   Biso      1.000     H          0.100166  
         H9        1.0000    0.12690   0.11420   0.04280   Biso      1.000     H          0.104552  
         H10       1.0000    0.06610   0.21980   0.51300   Biso      1.000     H          0.116795  
         H11       1.0000    0.92970   0.94240   0.28030   Biso      1.000     H          0.10092   
         H12       1.0000    0.41800   0.65710   0.10590   Biso      1.000     H          0.104022  
         H13       1.0000    0.11020   0.05120   0.16100   Biso      1.000     H          0.099057  
         H14       1.0000    0.80240   0.88020   0.14600   Biso      1.000     H          0.109303  
         H15       1.0000    0.57030   0.44240   0.21970   Biso      1.000     H          0.10092   
         H16       1.0000    0.61020   0.55120   0.16100   Biso      1.000     H          0.099057  
         H17       1.0000    0.82910   0.04300   0.96710   Biso      1.000     H          0.100166  
         H18       1.0000    0.06610   0.78020   0.01300   Biso      1.000     H          0.116796  
         H19       1.0000    0.91800   0.15710   0.10590   Biso      1.000     H          0.104022  
         H20       1.0000    0.38980   0.44880   0.83900   Biso      1.000     H          0.099057  
         H21       1.0000    0.37310   0.38580   0.95720   Biso      1.000     H          0.104552  
         H22       1.0000    0.17090   0.04300   0.53290   Biso      1.000     H          0.100166  
         H23       1.0000    0.29740   0.98170   0.66600   Biso      1.000     H          0.121599  
         H24       1.0000    0.29740   0.01830   0.16600   Biso      1.000     H          0.1216    
         H25       1.0000    0.17090   0.95700   0.03290   Biso      1.000     H          0.100166  
         H26       1.0000    0.07030   0.05760   0.71970   Biso      1.000     H          0.10092   
         H27       1.0000    0.19760   0.11980   0.85400   Biso      1.000     H          0.109303  
         H28       1.0000    0.93390   0.78020   0.48700   Biso      1.000     H          0.116795  
         H29       1.0000    0.58200   0.34290   0.89410   Biso      1.000     H          0.104021  
         H30       1.0000    0.91800   0.84290   0.60590   Biso      1.000     H          0.104022  
         H31       1.0000    0.12690   0.88580   0.54280   Biso      1.000     H          0.104552  
         H32       1.0000    0.79740   0.51830   0.16600   Biso      1.000     H          0.1216    
         H33       1.0000    0.67090   0.45700   0.03290   Biso      1.000     H          0.100166  
         H34       1.0000    0.57030   0.55760   0.71970   Biso      1.000     H          0.10092   
         H35       1.0000    0.69760   0.61980   0.85400   Biso      1.000     H          0.109303  
         H36       1.0000    0.43390   0.28020   0.48700   Biso      1.000     H          0.116796  
         H37       1.0000    0.41800   0.34290   0.60590   Biso      1.000     H          0.104022  
         H38       1.0000    0.61020   0.44880   0.66100   Biso      1.000     H          0.099057  
         H39       1.0000    0.62690   0.38580   0.54280   Biso      1.000     H          0.104552  
         H40       1.0000    0.11020   0.94880   0.66100   Biso      1.000     H          0.099057  
         H41       1.0000    0.87310   0.11420   0.45720   Biso      1.000     H          0.104552  
         H42       1.0000    0.56610   0.28020   0.01300   Biso      1.000     H          0.116796  
         H43       1.0000    0.42970   0.55760   0.78030   Biso      1.000     H          0.10092   
         H44       1.0000    0.20260   0.48170   0.83400   Biso      1.000     H          0.1216    
         H45       1.0000    0.32910   0.54300   0.96710   Biso      1.000     H          0.100166  
         H46       1.0000    0.42970   0.44240   0.28030   Biso      1.000     H          0.10092   
         H47       1.0000    0.30240   0.38020   0.14600   Biso      1.000     H          0.109303  
         H48       1.0000    0.56610   0.71980   0.51300   Biso      1.000     H          0.116796  
         H49       1.0000    0.58200   0.65710   0.39410   Biso      1.000     H          0.104022  
         H50       1.0000    0.38980   0.55120   0.33900   Biso      1.000     H          0.099057  
         H51       1.0000    0.37310   0.61420   0.45720   Biso      1.000     H          0.104552  
         H52       1.0000    0.93390   0.21980   0.98700   Biso      1.000     H          0.116796  
         H53       1.0000    0.30240   0.61980   0.64600   Biso      1.000     H          0.109303  
         H54       1.0000    0.19760   0.88020   0.35400   Biso      1.000     H          0.109303  
         H55       1.0000    0.82910   0.95700   0.46710   Biso      1.000     H          0.100166  
         H56       1.0000    0.92970   0.05760   0.78030   Biso      1.000     H          0.10092   
         H57       1.0000    0.80240   0.11980   0.64600   Biso      1.000     H          0.109303  
         H58       1.0000    0.08200   0.84290   0.89410   Biso      1.000     H          0.104022  
         H59       1.0000    0.88980   0.94880   0.83900   Biso      1.000     H          0.099057  
         H60       1.0000    0.87310   0.88580   0.95720   Biso      1.000     H          0.104552  
         H61       1.0000    0.07030   0.94240   0.21970   Biso      1.000     H          0.10092   
         H62       1.0000    0.20260   0.51830   0.33400   Biso      1.000     H          0.1216    
         H63       1.0000    0.32910   0.45700   0.46710   Biso      1.000     H          0.100166  
         H64       1.0000    0.70260   0.01830   0.33400   Biso      1.000     H          0.1216    
         O1        1.0000    0.40850   0.89660   0.72720   Biso      1.000     O          -0.503222           
         O2        1.0000    0.61406   0.29186   0.43245   Biso      1.000     O          -0.618998           
         O3        1.0000    0.98931   0.25806   0.87257   Biso      1.000     O          -0.561919           
         O4        1.0000    0.48931   0.24194   0.37257   Biso      1.000     O          -0.561919           
         O5        1.0000    0.83997   0.66566   0.06393   Biso      1.000     O          -0.631867           
         O6        1.0000    0.90850   0.60340   0.22720   Biso      1.000     O          -0.503222           
         O7        1.0000    0.11406   0.79186   0.43245   Biso      1.000     O          -0.618998           
         O8        1.0000    0.98931   0.74194   0.37257   Biso      1.000     O          -0.561919           
         O9        1.0000    0.33997   0.16566   0.06393   Biso      1.000     O          -0.631867           
         O10       1.0000    0.40850   0.10340   0.22720   Biso      1.000     O          -0.503222           
         O11       1.0000    0.38594   0.29186   0.06755   Biso      1.000     O          -0.618998           
         O12       1.0000    0.51069   0.24194   0.12743   Biso      1.000     O          -0.561919           
         O13       1.0000    0.16003   0.66566   0.43607   Biso      1.000     O          -0.631867           
         O14       1.0000    0.09150   0.60340   0.27280   Biso      1.000     O          -0.503222           
         O15       1.0000    0.88594   0.79186   0.06755   Biso      1.000     O          -0.618998           
         O16       1.0000    0.01069   0.74194   0.12743   Biso      1.000     O          -0.561919           
         O17       1.0000    0.33997   0.83434   0.56393   Biso      1.000     O          -0.631867           
         O18       1.0000    0.66003   0.16566   0.43607   Biso      1.000     O          -0.631867           
         O19       1.0000    0.38594   0.70814   0.56755   Biso      1.000     O          -0.618998           
         O20       1.0000    0.11406   0.20814   0.93245   Biso      1.000     O          -0.618998           
         O21       1.0000    0.90850   0.39660   0.72720   Biso      1.000     O          -0.503222           
         O22       1.0000    0.83997   0.33434   0.56393   Biso      1.000     O          -0.631867           
         O23       1.0000    0.48931   0.75806   0.87257   Biso      1.000     O          -0.561919           
         O24       1.0000    0.61406   0.70814   0.93245   Biso      1.000     O          -0.618998           
         O25       1.0000    0.59150   0.10340   0.27280   Biso      1.000     O          -0.503222           
         O26       1.0000    0.59150   0.89660   0.77280   Biso      1.000     O          -0.503222           
         O27       1.0000    0.01069   0.25806   0.62743   Biso      1.000     O          -0.561919           
         O28       1.0000    0.88594   0.20814   0.56755   Biso      1.000     O          -0.618998           
         O29       1.0000    0.09150   0.39660   0.77280   Biso      1.000     O          -0.503222           
         O30       1.0000    0.16003   0.33434   0.93607   Biso      1.000     O          -0.631867           
         O31       1.0000    0.51069   0.75806   0.62743   Biso      1.000     O          -0.561919           
         O32       1.0000    0.66003   0.83434   0.93607   Biso      1.000     O          -0.631867           
         Si1       1.0000    0.50000   0.54843   0.25000   Biso      1.000     Si          0.656173  
         Si2       1.0000    0.50000   0.45157   0.75000   Biso      1.000     Si          0.656173  
         Si3       1.0000    0.00000   0.95157   0.75000   Biso      1.000     Si          0.656173  
         Si4       1.0000    0.00000   0.04843   0.25000   Biso      1.000     Si          0.656173 