
##########################################################################
#               Crystallographic Information Format file
#               Produced by PyCifRW module
#
#  This is a CIF file.  CIF has been adopted by the International
#  Union of Crystallography as the standard for data archiving and
#  transmission.
#
#  For information on this file format, follow the CIF links at
#  http://www.iucr.org
##########################################################################

data_image0

_cell_length_a                          14.1504
_cell_length_b                          19.257
_cell_length_c                          19.43
_cell_angle_alpha                       69.873
_cell_angle_beta                        82.011
_cell_angle_gamma                       75.484
_symmetry_space_group_name_H-M          'P 1'
_symmetry_int_tables_number             1
loop_
  _symmetry_equiv_pos_as_xyz
         'x, y, z' 
loop_
  _atom_site_label
  _atom_site_occupancy
  _atom_site_fract_x
  _atom_site_fract_y
  _atom_site_fract_z
  _atom_site_thermal_displace_type
  _atom_site_B_iso_or_equiv
  _atom_site_type_symbol
  _atom_site_charge
         C1        1.0000    0.63780   0.73337   0.59934   Biso      1.000     C          0.004605  
         C2        1.0000    0.09190   0.54911   0.29598   Biso      1.000     C          -0.172632           
         C3        1.0000    0.90210   0.49530   0.27562   Biso      1.000     C          -0.199729           
         C4        1.0000    0.15590   0.19809   0.23336   Biso      1.000     C          0.100647  
         C5        1.0000    0.63270   0.23386   0.59200   Biso      1.000     C          -0.100016           
         C6        1.0000    0.67840   0.32341   0.47252   Biso      1.000     C          0.565436  
         C7        1.0000    0.67960   0.55429   0.50741   Biso      1.000     C          0.547269  
         C8        1.0000    0.74690   0.58446   0.32184   Biso      1.000     C          0.08672   
         C9        1.0000    0.37770   0.20385   0.36744   Biso      1.000     C          0.556151  
         C10       1.0000    0.81520   0.61780   0.27072   Biso      1.000     C          -0.190042           
         C11       1.0000    0.97370   0.60363   0.19504   Biso      1.000     C          -0.082774           
         C12       1.0000    0.06460   0.59031   0.22103   Biso      1.000     C          0.19137   
         C13       1.0000    0.22060   0.58838   0.22507   Biso      1.000     C          0.198794  
         C14       1.0000    0.31630   0.59683   0.20220   Biso      1.000     C          -0.085196           
         C15       1.0000    0.34950   0.63499   0.13139   Biso      1.000     C          0.195418  
         C16       1.0000    0.36220   0.26663   0.40066   Biso      1.000     C          0.004603  
         C17       1.0000    0.44880   0.64307   0.10943   Biso      1.000     C          -0.187259           
         C18       1.0000    0.37950   0.83840   0.36470   Biso      1.000     C          -0.166215           
         C19       1.0000    0.44970   0.68725   0.03816   Biso      1.000     C          -0.193275           
         C20       1.0000    0.35190   0.70632   0.01489   Biso      1.000     C          0.189971  
         C21       1.0000    0.31590   0.88690   0.46210   Biso      1.000     C          -0.10733  
         C22       1.0000    0.46440   0.74284   0.85480   Biso      1.000     C          -0.196377           
         C23       1.0000    0.46650   0.22690   0.19563   Biso      1.000     C          0.112907  
         C24       1.0000    0.53350   0.77310   0.80437   Biso      1.000     C          0.112914  
         C25       1.0000    0.68410   0.11310   0.53790   Biso      1.000     C          -0.10733  
         C26       1.0000    0.62050   0.16160   0.63530   Biso      1.000     C          -0.166215           
         C27       1.0000    0.26960   0.31190   0.40598   Biso      1.000     C          -0.182054           
         C28       1.0000    0.62230   0.79615   0.63256   Biso      1.000     C          0.556151  
         C29       1.0000    0.59420   0.13927   0.12593   Biso      1.000     C          -0.197818           
         C30       1.0000    0.18820   0.54780   0.29781   Biso      1.000     C          -0.158236           
         C31       1.0000    0.67870   0.24679   0.05492   Biso      1.000     C          -0.101898           
         C32       1.0000    0.77290   0.22874   0.07948   Biso      1.000     C          0.193585  
         C33       1.0000    0.36670   0.97770   0.34140   Biso      1.000     C          0.560728  
         C34       1.0000    0.52420   0.11231   0.17727   Biso      1.000     C          0.081887  
         C35       1.0000    0.60120   0.21424   0.11008   Biso      1.000     C          0.152152  
         C36       1.0000    0.35330   0.89836   0.39106   Biso      1.000     C          0.025783  
         C37       1.0000    0.09590   0.20635   0.11955   Biso      1.000     C          0.161855  
         C38       1.0000    0.60800   0.43846   0.74022   Biso      1.000     C          0.143681  
         C39       1.0000    0.30390   0.81510   0.50680   Biso      1.000     C          -0.127567           
         C40       1.0000    0.53140   0.49634   0.74486   Biso      1.000     C          -0.200516           
         C41       1.0000    0.10280   0.42856   0.75131   Biso      1.000     C          0.146367  
         C42       1.0000    0.25540   0.36971   0.43563   Biso      1.000     C          -0.090001           
         C43       1.0000    0.33560   0.38287   0.46013   Biso      1.000     C          -0.031466           
         C44       1.0000    0.42680   0.33650   0.45605   Biso      1.000     C          -0.11829  
         C45       1.0000    0.46140   0.52522   0.69312   Biso      1.000     C          0.092002  
         C46       1.0000    0.84410   0.80191   0.76664   Biso      1.000     C          0.100647  
         C47       1.0000    0.32910   0.75568   0.47905   Biso      1.000     C          -0.016081           
         C48       1.0000    0.17240   0.53295   0.67518   Biso      1.000     C          0.118283  
         C49       1.0000    0.61510   0.40991   0.68178   Biso      1.000     C          -0.181117           
         C50       1.0000    0.05620   0.35390   0.87614   Biso      1.000     C          0.189795  
         C51       1.0000    0.14910   0.34550   0.90326   Biso      1.000     C          -0.190453           
         C52       1.0000    0.25100   0.12876   0.16249   Biso      1.000     C          0.096204  
         C53       1.0000    0.14820   0.30260   0.97499   Biso      1.000     C          -0.197045           
         C54       1.0000    0.05380   0.28258   0.99295   Biso      1.000     C          0.191491  
         C55       1.0000    0.02140   0.23980   0.06277   Biso      1.000     C          -0.095675           
         C56       1.0000    0.18050   0.15590   0.11044   Biso      1.000     C          -0.211481           
         C57       1.0000    0.92860   0.22646   0.08393   Biso      1.000     C          0.192876  
         C58       1.0000    0.89520   0.18219   0.15536   Biso      1.000     C          -0.17758  
         C59       1.0000    0.80050   0.18267   0.15311   Biso      1.000     C          -0.180609           
         C60       1.0000    0.91640   0.77390   0.81633   Biso      1.000     C          -0.206129           
         C61       1.0000    0.54190   0.44085   0.63256   Biso      1.000     C          0.107692  
         C62       1.0000    0.53560   0.25716   0.14520   Biso      1.000     C          -0.196357           
         C63       1.0000    0.44020   0.28000   0.42688   Biso      1.000     C          -0.106233           
         C64       1.0000    0.32130   0.75321   0.94508   Biso      1.000     C          -0.101899           
         C65       1.0000    0.39200   0.56154   0.25978   Biso      1.000     C          0.143681  
         C66       1.0000    0.08360   0.22610   0.18367   Biso      1.000     C          -0.206128           
         C67       1.0000    0.02630   0.39637   0.80496   Biso      1.000     C          -0.082774           
         C68       1.0000    0.64670   0.10164   0.60894   Biso      1.000     C          0.025783  
         C69       1.0000    0.63330   0.02230   0.65860   Biso      1.000     C          0.560728  
         C70       1.0000    0.73040   0.68810   0.59402   Biso      1.000     C          -0.182054           
         C71       1.0000    0.55980   0.72000   0.57312   Biso      1.000     C          -0.10625  
         C72       1.0000    0.40580   0.86073   0.87407   Biso      1.000     C          -0.19782  
         C73       1.0000    0.18480   0.38220   0.72928   Biso      1.000     C          -0.19004  
         C74       1.0000    0.38490   0.59009   0.31822   Biso      1.000     C          -0.181117           
         C75       1.0000    0.25310   0.41554   0.67816   Biso      1.000     C          0.08672   
         C76       1.0000    0.47580   0.88769   0.82273   Biso      1.000     C          0.081888  
         C77       1.0000    0.39880   0.78576   0.88992   Biso      1.000     C          0.152166  
         C78       1.0000    0.90410   0.79365   0.88045   Biso      1.000     C          0.161855  
         C79       1.0000    0.81180   0.45220   0.70219   Biso      1.000     C          -0.158248           
         C80       1.0000    0.32040   0.44571   0.49259   Biso      1.000     C          0.547269  
         C81       1.0000    0.69610   0.18490   0.49320   Biso      1.000     C          -0.127567           
         C82       1.0000    0.45810   0.55915   0.36744   Biso      1.000     C          0.107692  
         C83       1.0000    0.32160   0.67659   0.52748   Biso      1.000     C          0.565436  
         C84       1.0000    0.36730   0.76614   0.40800   Biso      1.000     C          -0.100012           
         C85       1.0000    0.53860   0.47478   0.30688   Biso      1.000     C          0.091999  
         C86       1.0000    0.74460   0.63029   0.56437   Biso      1.000     C          -0.09     
         C87       1.0000    0.09790   0.50470   0.72438   Biso      1.000     C          -0.199724           
         C88       1.0000    0.46860   0.50366   0.25514   Biso      1.000     C          -0.200513           
         C89       1.0000    0.77940   0.41162   0.77493   Biso      1.000     C          0.198796  
         C90       1.0000    0.93540   0.40969   0.77897   Biso      1.000     C          0.191369  
         C91       1.0000    0.85180   0.69740   0.02501   Biso      1.000     C          -0.197058           
         C92       1.0000    0.22710   0.77126   0.92052   Biso      1.000     C          0.193587  
         C93       1.0000    0.19950   0.81733   0.84689   Biso      1.000     C          -0.180629           
         C94       1.0000    0.64810   0.29368   0.98511   Biso      1.000     C          0.189972  
         C95       1.0000    0.10480   0.81781   0.84464   Biso      1.000     C          -0.177559           
         C96       1.0000    0.07140   0.77354   0.91607   Biso      1.000     C          0.192872  
         C97       1.0000    0.81950   0.84410   0.88956   Biso      1.000     C          -0.211481           
         C98       1.0000    0.97860   0.76020   0.93723   Biso      1.000     C          -0.095674           
         C99       1.0000    0.94620   0.71742   0.00705   Biso      1.000     C          0.191493  
         C100      1.0000    0.55030   0.31275   0.96184   Biso      1.000     C          -0.193289           
         C101      1.0000    0.68370   0.40317   0.79780   Biso      1.000     C          -0.085196           
         C102      1.0000    0.74900   0.87124   0.83751   Biso      1.000     C          0.096204  
         C103      1.0000    0.90810   0.45089   0.70402   Biso      1.000     C          -0.17262  
         C104      1.0000    0.66440   0.61713   0.53987   Biso      1.000     C          -0.031468           
         C105      1.0000    0.94380   0.64610   0.12386   Biso      1.000     C          0.189793  
         C106      1.0000    0.55120   0.35693   0.89057   Biso      1.000     C          -0.187245           
         C107      1.0000    0.82760   0.46705   0.32482   Biso      1.000     C          0.118284  
         C108      1.0000    0.67090   0.24432   0.52095   Biso      1.000     C          -0.016077           
         C109      1.0000    0.57320   0.66350   0.54395   Biso      1.000     C          -0.118273           
         C110      1.0000    0.85090   0.65450   0.09674   Biso      1.000     C          -0.190439           
         C111      1.0000    0.65050   0.36501   0.86861   Biso      1.000     C          0.195417  
         C112      1.0000    0.89720   0.57144   0.24869   Biso      1.000     C          0.146372  
         H1        1.0000    0.47980   0.34430   0.47360   Biso      1.000     H          0.109135  
         H2        1.0000    0.50600   0.25500   0.41900   Biso      1.000     H          0.111265  
         H3        1.0000    0.03500   0.26120   0.19480   Biso      1.000     H          0.138988  
         H4        1.0000    0.77410   0.47510   0.66140   Biso      1.000     H          0.139439  
         H5        1.0000    0.23400   0.30170   0.38630   Biso      1.000     H          0.131572  
         H6        1.0000    0.52620   0.51640   0.78280   Biso      1.000     H          0.13251   
         H7        1.0000    0.94870   0.47230   0.66470   Biso      1.000     H          0.142769  
         H8        1.0000    0.26200   0.91700   0.49000   Biso      1.000     H          0.114041  
         H9        1.0000    0.76070   0.15830   0.19130   Biso      1.000     H          0.145468  
         H10       1.0000    0.38460   0.72600   0.38930   Biso      1.000     H          0.110712  
         H11       1.0000    0.16940   0.58480   0.65950   Biso      1.000     H          0.103511  
         H12       1.0000    0.20100   0.36590   0.87620   Biso      1.000     H          0.130476  
         H13       1.0000    0.19840   0.28870   0.00650   Biso      1.000     H          0.135174  
         H14       1.0000    0.30670   0.38420   0.66250   Biso      1.000     H          0.10186   
         H15       1.0000    0.93280   0.15750   0.19600   Biso      1.000     H          0.135942  
         H16       1.0000    0.19390   0.32970   0.74840   Biso      1.000     H          0.138307  
         H17       1.0000    0.63630   0.10820   0.10200   Biso      1.000     H          0.13796   
         H18       1.0000    0.14670   0.21260   0.27520   Biso      1.000     H          0.115393  
         H19       1.0000    0.49790   0.37810   0.86130   Biso      1.000     H          0.132051  
         H20       1.0000    0.49620   0.29750   0.99050   Biso      1.000     H          0.130623  
         H21       1.0000    0.53750   0.30770   0.13500   Biso      1.000     H          0.133703  
         H22       1.0000    0.42220   0.25790   0.21860   Biso      1.000     H          0.098717  
         H23       1.0000    0.04520   0.53780   0.73860   Biso      1.000     H          0.134104  
         H24       1.0000    0.59200   0.16320   0.67310   Biso      1.000     H          0.130304  
         H25       1.0000    0.40800   0.83680   0.32690   Biso      1.000     H          0.130304  
         H26       1.0000    0.50380   0.70250   0.00950   Biso      1.000     H          0.130622  
         H27       1.0000    0.49400   0.74500   0.58100   Biso      1.000     H          0.111267  
         H28       1.0000    0.96500   0.73880   0.80520   Biso      1.000     H          0.138988  
         H29       1.0000    0.76600   0.69830   0.61370   Biso      1.000     H          0.131571  
         H30       1.0000    0.73800   0.08300   0.51000   Biso      1.000     H          0.114041  
         H31       1.0000    0.52020   0.65570   0.52640   Biso      1.000     H          0.109134  
         H32       1.0000    0.22590   0.52490   0.33860   Biso      1.000     H          0.139438  
         H33       1.0000    0.05130   0.52770   0.33530   Biso      1.000     H          0.14277   
         H34       1.0000    0.95480   0.46220   0.26140   Biso      1.000     H          0.134104  
         H35       1.0000    0.61540   0.27400   0.61070   Biso      1.000     H          0.110713  
         H36       1.0000    0.69330   0.61580   0.33750   Biso      1.000     H          0.10186   
         H37       1.0000    0.80610   0.67030   0.25160   Biso      1.000     H          0.138307  
         H38       1.0000    0.50210   0.62190   0.13870   Biso      1.000     H          0.132052  
         H39       1.0000    0.83060   0.41520   0.34050   Biso      1.000     H          0.103511  
         H40       1.0000    0.46250   0.69230   0.86500   Biso      1.000     H          0.133704  
         H41       1.0000    0.57780   0.74210   0.78140   Biso      1.000     H          0.098716  
         H42       1.0000    0.85330   0.78740   0.72480   Biso      1.000     H          0.115393  
         H43       1.0000    0.36370   0.89180   0.89800   Biso      1.000     H          0.13796   
         H44       1.0000    0.23930   0.84170   0.80870   Biso      1.000     H          0.145469  
         H45       1.0000    0.06720   0.84250   0.80400   Biso      1.000     H          0.135941  
         H46       1.0000    0.80400   0.85620   0.92980   Biso      1.000     H          0.139886  
         H47       1.0000    0.80160   0.71130   0.99350   Biso      1.000     H          0.135175  
         H48       1.0000    0.19600   0.14380   0.07020   Biso      1.000     H          0.139886  
         H49       1.0000    0.47380   0.48360   0.21720   Biso      1.000     H          0.132509  
         H50       1.0000    0.52040   0.06210   0.18820   Biso      1.000     H          0.128459  
         H51       1.0000    0.69210   0.90530   0.84460   Biso      1.000     H          0.103236  
         H52       1.0000    0.27890   0.80740   0.55510   Biso      1.000     H          0.120506  
         H53       1.0000    0.33260   0.62860   0.32370   Biso      1.000     H          0.146022  
         H54       1.0000    0.45440   0.57820   0.40590   Biso      1.000     H          0.108637  
         H55       1.0000    0.58990   0.43490   0.30320   Biso      1.000     H          0.10534   
         H56       1.0000    0.80670   0.60050   0.56080   Biso      1.000     H          0.110146  
         H57       1.0000    0.19330   0.39950   0.43920   Biso      1.000     H          0.110146  
         H58       1.0000    0.72110   0.19260   0.44490   Biso      1.000     H          0.120506  
         H59       1.0000    0.79900   0.63410   0.12380   Biso      1.000     H          0.130475  
         H60       1.0000    0.41010   0.56510   0.69680   Biso      1.000     H          0.10534   
         H61       1.0000    0.54560   0.42180   0.59410   Biso      1.000     H          0.108637  
         H62       1.0000    0.66740   0.37140   0.67630   Biso      1.000     H          0.146022  
         H63       1.0000    0.30790   0.09470   0.15540   Biso      1.000     H          0.103236  
         H64       1.0000    0.47960   0.93790   0.81180   Biso      1.000     H          0.128459  
         N1        1.0000    0.14455   0.61465   0.17880   Biso      1.000     N          -0.393763           
         N2        1.0000    0.75469   0.51000   0.34936   Biso      1.000     N          -0.193506           
         N3        1.0000    0.53968   0.84455   0.78713   Biso      1.000     N          -0.204532           
         N4        1.0000    0.76067   0.84977   0.77759   Biso      1.000     N          -0.208708           
         N5        1.0000    0.29237   0.67305   0.07258   Biso      1.000     N          -0.380153           
         N6        1.0000    0.99792   0.31567   0.93263   Biso      1.000     N          -0.383378           
         N7        1.0000    0.53496   0.50232   0.36213   Biso      1.000     N          -0.215071           
         N8        1.0000    0.14839   0.74672   0.96186   Biso      1.000     N          -0.386573           
         N9        1.0000    0.46032   0.15545   0.21287   Biso      1.000     N          -0.204531           
         N10       1.0000    0.00208   0.68433   0.06737   Biso      1.000     N          -0.383378           
         N11       1.0000    0.85161   0.25328   0.03814   Biso      1.000     N          -0.386573           
         N12       1.0000    0.70763   0.32695   0.92742   Biso      1.000     N          -0.380153           
         N13       1.0000    0.46504   0.49768   0.63787   Biso      1.000     N          -0.215072           
         N14       1.0000    0.24531   0.49000   0.65064   Biso      1.000     N          -0.193506           
         N15       1.0000    0.23933   0.15023   0.22241   Biso      1.000     N          -0.208708           
         N16       1.0000    0.85545   0.38535   0.82120   Biso      1.000     N          -0.393763           
         O1        1.0000    0.69393   0.79488   0.66766   Biso      1.000     O          -0.589832           
         O2        1.0000    0.54488   0.84442   0.62735   Biso      1.000     O          -0.544043           
         O3        1.0000    0.40113   0.98639   0.27582   Biso      1.000     O          -0.627172           
         O4        1.0000    0.65850   0.97134   0.63065   Biso      1.000     O          -0.501536           
         O5        1.0000    0.29620   0.66396   0.59429   Biso      1.000     O          -0.607094           
         O6        1.0000    0.34276   0.62522   0.49760   Biso      1.000     O          -0.538221           
         O7        1.0000    0.60732   0.55435   0.47305   Biso      1.000     O          -0.569476           
         O8        1.0000    0.75725   0.50603   0.51297   Biso      1.000     O          -0.567152           
         O9        1.0000    0.70380   0.33604   0.40571   Biso      1.000     O          -0.607094           
         O10       1.0000    0.24275   0.49397   0.48703   Biso      1.000     O          -0.567152           
         O11       1.0000    0.39268   0.44565   0.52695   Biso      1.000     O          -0.569476           
         O12       1.0000    0.34150   0.02866   0.36935   Biso      1.000     O          -0.501536           
         O13       1.0000    0.45512   0.15558   0.37265   Biso      1.000     O          -0.544043           
         O14       1.0000    0.30607   0.20512   0.33234   Biso      1.000     O          -0.589832           
         O15       1.0000    0.59887   0.01361   0.72418   Biso      1.000     O          -0.627172           
         O16       1.0000    0.65724   0.37478   0.50240   Biso      1.000     O          -0.538221           
         Zn1       1.0000    0.34984   0.52663   0.57223   Biso      1.000     Zn          0.744288  
         Zn2       1.0000    0.35352   0.12147   0.28991   Biso      1.000     Zn          0.735341  
         Zn3       1.0000    0.85838   0.30518   0.92508   Biso      1.000     Zn          0.681721  
         Zn4       1.0000    0.65016   0.47337   0.42777   Biso      1.000     Zn          0.744288  
         Zn5       1.0000    0.64648   0.87853   0.71009   Biso      1.000     Zn          0.735341  
         Zn6       1.0000    0.14162   0.69482   0.07492   Biso      1.000     Zn          0.681721 