
##########################################################################
#               Crystallographic Information Format file
#               Produced by PyCifRW module
#
#  This is a CIF file.  CIF has been adopted by the International
#  Union of Crystallography as the standard for data archiving and
#  transmission.
#
#  For information on this file format, follow the CIF links at
#  http://www.iucr.org
##########################################################################

data_image0

_cell_length_a                          14.4447
_cell_length_b                          15.6609
_cell_length_c                          20.4563
_cell_angle_alpha                       90
_cell_angle_beta                        90
_cell_angle_gamma                       90
_symmetry_space_group_name_H-M          'P 1'
_symmetry_int_tables_number             1
loop_
  _symmetry_equiv_pos_as_xyz
         'x, y, z' 
loop_
  _atom_site_label
  _atom_site_occupancy
  _atom_site_fract_x
  _atom_site_fract_y
  _atom_site_fract_z
  _atom_site_thermal_displace_type
  _atom_site_B_iso_or_equiv
  _atom_site_type_symbol
  _atom_site_charge
         C1        1.0000    0.13540   0.86590   0.33600   Biso      1.000     C          0.564345  
         C2        1.0000    0.03220   0.53190   0.60600   Biso      1.000     C          -0.082669           
         C3        1.0000    0.96780   0.46810   0.72200   Biso      1.000     C          -0.082574           
         C4        1.0000    0.03240   0.53220   0.72200   Biso      1.000     C          -0.078068           
         C5        1.0000    0.06460   0.56400   0.66400   Biso      1.000     C          -0.006661           
         C6        1.0000    0.63320   0.36590   0.81100   Biso      1.000     C          0.60495   
         C7        1.0000    0.36680   0.63410   0.84600   Biso      1.000     C          0.521557  
         C8        1.0000    0.56360   0.43600   0.82000   Biso      1.000     C          -0.009991           
         C9        1.0000    0.52490   0.47490   0.76700   Biso      1.000     C          -0.074736           
         C10       1.0000    0.46130   0.53890   0.77500   Biso      1.000     C          -0.092471           
         C11       1.0000    0.47510   0.52510   0.89000   Biso      1.000     C          -0.093344           
         C12       1.0000    0.43640   0.56400   0.83600   Biso      1.000     C          -0.023534           
         C13       1.0000    0.86530   0.36600   0.01060   Biso      1.000     C          0.558943  
         C14       1.0000    0.13470   0.63400   0.98940   Biso      1.000     C          0.56141   
         C15       1.0000    0.93570   0.43600   0.00510   Biso      1.000     C          -0.007686           
         C16       1.0000    0.96360   0.46380   0.94470   Biso      1.000     C          -0.085136           
         C17       1.0000    0.02790   0.52780   0.93960   Biso      1.000     C          -0.083626           
         C18       1.0000    0.97210   0.47220   0.06040   Biso      1.000     C          -0.082588           
         C19       1.0000    0.03640   0.53620   0.05530   Biso      1.000     C          -0.080912           
         C20       1.0000    0.06430   0.56400   0.99490   Biso      1.000     C          -0.013727           
         C21       1.0000    0.36460   0.86590   0.83600   Biso      1.000     C          0.562274  
         C22       1.0000    0.63540   0.13410   0.83600   Biso      1.000     C          0.598115  
         C23       1.0000    0.43540   0.93600   0.83600   Biso      1.000     C          -0.015413           
         C24       1.0000    0.46760   0.96780   0.89400   Biso      1.000     C          -0.082742           
         C25       1.0000    0.96760   0.46780   0.60600   Biso      1.000     C          -0.082736           
         C26       1.0000    0.53220   0.03190   0.89400   Biso      1.000     C          -0.082655           
         C27       1.0000    0.93540   0.43600   0.66400   Biso      1.000     C          -0.015401           
         C28       1.0000    0.86460   0.36590   0.66400   Biso      1.000     C          0.562273  
         C29       1.0000    0.86460   0.13410   0.33600   Biso      1.000     C          0.598164  
         C30       1.0000    0.06460   0.93600   0.33600   Biso      1.000     C          -0.015621           
         C31       1.0000    0.03240   0.96780   0.39400   Biso      1.000     C          -0.082235           
         C32       1.0000    0.96780   0.03190   0.39400   Biso      1.000     C          -0.082711           
         C33       1.0000    0.03220   0.96810   0.27800   Biso      1.000     C          -0.082922           
         C34       1.0000    0.96760   0.03220   0.27800   Biso      1.000     C          -0.078375           
         C35       1.0000    0.93540   0.06400   0.33600   Biso      1.000     C          -0.006424           
         C36       1.0000    0.36680   0.86590   0.18900   Biso      1.000     C          0.605007  
         C37       1.0000    0.63320   0.13410   0.15400   Biso      1.000     C          0.521792  
         C38       1.0000    0.43640   0.93600   0.18000   Biso      1.000     C          -0.009414           
         C39       1.0000    0.47510   0.97490   0.23300   Biso      1.000     C          -0.074799           
         C40       1.0000    0.53870   0.03890   0.22500   Biso      1.000     C          -0.092359           
         C41       1.0000    0.46130   0.96110   0.11800   Biso      1.000     C          -0.0836   
         C42       1.0000    0.52490   0.02510   0.11000   Biso      1.000     C          -0.09297  
         C43       1.0000    0.56360   0.06400   0.16400   Biso      1.000     C          -0.024367           
         C44       1.0000    0.13470   0.86600   0.98940   Biso      1.000     C          0.558684  
         C45       1.0000    0.86530   0.13400   0.01060   Biso      1.000     C          0.561085  
         C46       1.0000    0.06430   0.93600   0.99490   Biso      1.000     C          -0.007571           
         C47       1.0000    0.03640   0.96380   0.05530   Biso      1.000     C          -0.085165           
         C48       1.0000    0.97210   0.02780   0.06040   Biso      1.000     C          -0.083595           
         C49       1.0000    0.02790   0.97220   0.93960   Biso      1.000     C          -0.082275           
         C50       1.0000    0.96360   0.03620   0.94470   Biso      1.000     C          -0.081195           
         C51       1.0000    0.93570   0.06400   0.00510   Biso      1.000     C          -0.013406           
         C52       1.0000    0.13540   0.63410   0.66400   Biso      1.000     C          0.598114  
         C53       1.0000    0.46780   0.96810   0.77800   Biso      1.000     C          -0.082568           
         C54       1.0000    0.53870   0.46110   0.88200   Biso      1.000     C          -0.083914           
         C55       1.0000    0.56460   0.06400   0.83600   Biso      1.000     C          -0.006667           
         C56       1.0000    0.46760   0.53220   0.22200   Biso      1.000     C          -0.078389           
         C57       1.0000    0.43540   0.56400   0.16400   Biso      1.000     C          -0.006427           
         C58       1.0000    0.86680   0.36590   0.31100   Biso      1.000     C          0.605007  
         C59       1.0000    0.13320   0.63410   0.34600   Biso      1.000     C          0.521792  
         C60       1.0000    0.93640   0.43600   0.32000   Biso      1.000     C          -0.009415           
         C61       1.0000    0.97510   0.47490   0.26700   Biso      1.000     C          -0.074799           
         C62       1.0000    0.03870   0.53890   0.27500   Biso      1.000     C          -0.092359           
         C63       1.0000    0.02490   0.52510   0.39000   Biso      1.000     C          -0.09298  
         C64       1.0000    0.53220   0.46810   0.22200   Biso      1.000     C          -0.082914           
         C65       1.0000    0.06360   0.56400   0.33600   Biso      1.000     C          -0.024366           
         C66       1.0000    0.36530   0.63400   0.48940   Biso      1.000     C          0.561085  
         C67       1.0000    0.56430   0.43600   0.50510   Biso      1.000     C          -0.007571           
         C68       1.0000    0.53640   0.46380   0.44470   Biso      1.000     C          -0.085165           
         C69       1.0000    0.47210   0.52780   0.43960   Biso      1.000     C          -0.083595           
         C70       1.0000    0.52790   0.47220   0.56040   Biso      1.000     C          -0.082275           
         C71       1.0000    0.46360   0.53620   0.55530   Biso      1.000     C          -0.081195           
         C72       1.0000    0.43570   0.56400   0.49490   Biso      1.000     C          -0.013406           
         C73       1.0000    0.53240   0.03220   0.77800   Biso      1.000     C          -0.078063           
         C74       1.0000    0.63470   0.36600   0.51060   Biso      1.000     C          0.558683  
         C75       1.0000    0.46780   0.53190   0.10600   Biso      1.000     C          -0.08272  
         C76       1.0000    0.96130   0.46110   0.38200   Biso      1.000     C          -0.083589           
         C77       1.0000    0.56460   0.43600   0.16400   Biso      1.000     C          -0.015619           
         C78       1.0000    0.13320   0.86590   0.68900   Biso      1.000     C          0.60495   
         C79       1.0000    0.53240   0.46780   0.10600   Biso      1.000     C          -0.082222           
         C80       1.0000    0.86680   0.13410   0.65400   Biso      1.000     C          0.521556  
         C81       1.0000    0.06360   0.93600   0.68000   Biso      1.000     C          -0.00999  
         C82       1.0000    0.02490   0.97490   0.73300   Biso      1.000     C          -0.074736           
         C83       1.0000    0.96130   0.03890   0.72500   Biso      1.000     C          -0.092471           
         C84       1.0000    0.03870   0.96110   0.61800   Biso      1.000     C          -0.083926           
         C85       1.0000    0.93640   0.06400   0.66400   Biso      1.000     C          -0.023539           
         C86       1.0000    0.36530   0.86600   0.48940   Biso      1.000     C          0.558943  
         C87       1.0000    0.63470   0.13400   0.51060   Biso      1.000     C          0.56141   
         C88       1.0000    0.97510   0.02510   0.61000   Biso      1.000     C          -0.09333  
         C89       1.0000    0.63540   0.36590   0.16400   Biso      1.000     C          0.564345  
         C90       1.0000    0.46360   0.96380   0.55530   Biso      1.000     C          -0.085142           
         C91       1.0000    0.52790   0.02780   0.56040   Biso      1.000     C          -0.083626           
         C92       1.0000    0.47210   0.97220   0.43960   Biso      1.000     C          -0.082595           
         C93       1.0000    0.53640   0.03620   0.44470   Biso      1.000     C          -0.080911           
         C94       1.0000    0.56430   0.06400   0.50510   Biso      1.000     C          -0.013727           
         C95       1.0000    0.43570   0.93600   0.49490   Biso      1.000     C          -0.007676           
         C96       1.0000    0.36460   0.63410   0.16400   Biso      1.000     C          0.598164  
         H1        1.0000    0.55110   0.05092   0.61064   Biso      1.000     H          0.108739  
         H2        1.0000    0.43331   0.93367   0.60130   Biso      1.000     H          0.098174  
         H3        1.0000    0.95412   0.04624   0.55877   Biso      1.000     H          0.100018  
         H4        1.0000    0.07071   0.92892   0.57341   Biso      1.000     H          0.104958  
         H5        1.0000    0.55930   0.05902   0.72980   Biso      1.000     H          0.110664  
         H6        1.0000    0.04583   0.95380   0.78425   Biso      1.000     H          0.104109  
         H7        1.0000    0.44096   0.94142   0.72974   Biso      1.000     H          0.112553  
         H8        1.0000    0.44891   0.94909   0.38936   Biso      1.000     H          0.10952   
         H9        1.0000    0.92928   0.07109   0.76958   Biso      1.000     H          0.101793  
         H10       1.0000    0.56668   0.06632   0.39869   Biso      1.000     H          0.09088   
         H11       1.0000    0.56669   0.43367   0.39870   Biso      1.000     H          0.098406  
         H12       1.0000    0.44101   0.55852   0.05771   Biso      1.000     H          0.103767  
         H13       1.0000    0.55904   0.44142   0.27026   Biso      1.000     H          0.112324  
         H14       1.0000    0.44070   0.55902   0.27020   Biso      1.000     H          0.110453  
         H15       1.0000    0.95417   0.45380   0.21575   Biso      1.000     H          0.104203  
         H16       1.0000    0.07072   0.57109   0.23042   Biso      1.000     H          0.101895  
         H17       1.0000    0.92929   0.42892   0.42659   Biso      1.000     H          0.105109  
         H18       1.0000    0.04588   0.54624   0.44123   Biso      1.000     H          0.099745  
         H19       1.0000    0.55899   0.05852   0.94229   Biso      1.000     H          0.103472  
         H20       1.0000    0.44890   0.55092   0.38936   Biso      1.000     H          0.108838  
         H21       1.0000    0.55920   0.44108   0.05774   Biso      1.000     H          0.104897  
         H22       1.0000    0.44080   0.94108   0.94226   Biso      1.000     H          0.104855  
         H23       1.0000    0.93332   0.06632   0.89869   Biso      1.000     H          0.090917  
         H24       1.0000    0.94891   0.44909   0.11064   Biso      1.000     H          0.109519  
         H25       1.0000    0.55109   0.44909   0.61064   Biso      1.000     H          0.109752  
         H26       1.0000    0.94080   0.44108   0.55774   Biso      1.000     H          0.104854  
         H27       1.0000    0.05109   0.94909   0.88936   Biso      1.000     H          0.109752  
         H28       1.0000    0.94890   0.05092   0.11064   Biso      1.000     H          0.108838  
         H29       1.0000    0.06669   0.93367   0.10130   Biso      1.000     H          0.098406  
         H30       1.0000    0.54588   0.04624   0.05877   Biso      1.000     H          0.099744  
         H31       1.0000    0.42929   0.92892   0.07341   Biso      1.000     H          0.105111  
         H32       1.0000    0.57072   0.07109   0.26958   Biso      1.000     H          0.101896  
         H33       1.0000    0.45417   0.95380   0.28425   Biso      1.000     H          0.104204  
         H34       1.0000    0.06668   0.56632   0.10131   Biso      1.000     H          0.09088   
         H35       1.0000    0.94070   0.05902   0.22980   Biso      1.000     H          0.110452  
         H36       1.0000    0.05899   0.55852   0.55771   Biso      1.000     H          0.103473  
         H37       1.0000    0.94096   0.44142   0.77026   Biso      1.000     H          0.112553  
         H38       1.0000    0.05930   0.55902   0.77020   Biso      1.000     H          0.110664  
         H39       1.0000    0.54583   0.45380   0.71575   Biso      1.000     H          0.104109  
         H40       1.0000    0.42928   0.57109   0.73042   Biso      1.000     H          0.101793  
         H41       1.0000    0.57071   0.42892   0.92659   Biso      1.000     H          0.104957  
         H42       1.0000    0.45412   0.54624   0.94123   Biso      1.000     H          0.100019  
         H43       1.0000    0.93331   0.43367   0.89870   Biso      1.000     H          0.098173  
         H44       1.0000    0.05110   0.55092   0.88936   Biso      1.000     H          0.108739  
         H45       1.0000    0.05904   0.94142   0.22974   Biso      1.000     H          0.112324  
         H46       1.0000    0.43332   0.56632   0.60131   Biso      1.000     H          0.090917  
         H47       1.0000    0.05920   0.94108   0.44226   Biso      1.000     H          0.104898  
         H48       1.0000    0.94101   0.05852   0.44229   Biso      1.000     H          0.103766  
         O1        1.0000    0.16920   0.66830   0.04200   Biso      1.000     O          -0.654379           
         O2        1.0000    0.16990   0.82900   0.63800   Biso      1.000     O          -0.594318           
         O3        1.0000    0.84310   0.15790   0.59600   Biso      1.000     O          -0.602144           
         O4        1.0000    0.15690   0.84210   0.74800   Biso      1.000     O          -0.574102           
         O5        1.0000    0.83080   0.33170   0.95800   Biso      1.000     O          -0.568951           
         O6        1.0000    0.33880   0.83960   0.43200   Biso      1.000     O          -0.505697           
         O7        1.0000    0.66920   0.16830   0.45800   Biso      1.000     O          -0.654379           
         O8        1.0000    0.33080   0.83170   0.54200   Biso      1.000     O          -0.568951           
         O9        1.0000    0.66120   0.16040   0.56800   Biso      1.000     O          -0.438083           
         O10       1.0000    0.79700   0.25814   0.80827   Biso      1.000     O          -0.990144           
         O11       1.0000    0.23578   0.75813   0.53896   Biso      1.000     O          -0.634105           
         O12       1.0000    0.69000   0.22900   0.64500   Biso      1.000     O          -0.757945           
         O13       1.0000    0.66590   0.33560   0.22000   Biso      1.000     O          -0.495793           
         O14       1.0000    0.33380   0.66460   0.21900   Biso      1.000     O          -0.600352           
         O15       1.0000    0.66620   0.33540   0.10900   Biso      1.000     O          -0.637764           
         O16       1.0000    0.33410   0.66440   0.10900   Biso      1.000     O          -0.578027           
         O17       1.0000    0.83010   0.32900   0.36200   Biso      1.000     O          -0.596637           
         O18       1.0000    0.15690   0.65790   0.40400   Biso      1.000     O          -0.59748  
         O19       1.0000    0.84310   0.34210   0.25200   Biso      1.000     O          -0.573597           
         O20       1.0000    0.16990   0.67100   0.29500   Biso      1.000     O          -0.523388           
         O21       1.0000    0.66120   0.33960   0.56800   Biso      1.000     O          -0.50679  
         O22       1.0000    0.33080   0.66830   0.54200   Biso      1.000     O          -0.654057           
         O23       1.0000    0.66920   0.33170   0.45800   Biso      1.000     O          -0.563727           
         O24       1.0000    0.33880   0.66040   0.43200   Biso      1.000     O          -0.439965           
         O25       1.0000    0.20300   0.75814   0.19173   Biso      1.000     O          -0.987596           
         O26       1.0000    0.76422   0.25813   0.46104   Biso      1.000     O          -0.634499           
         O27       1.0000    0.31000   0.72900   0.35500   Biso      1.000     O          -0.755945           
         O28       1.0000    0.66590   0.16440   0.89100   Biso      1.000     O          -0.577274           
         O29       1.0000    0.33380   0.83540   0.89100   Biso      1.000     O          -0.631571           
         O30       1.0000    0.83010   0.17100   0.70500   Biso      1.000     O          -0.524419           
         O31       1.0000    0.33410   0.83560   0.78000   Biso      1.000     O          -0.495817           
         O32       1.0000    0.83880   0.33960   0.06800   Biso      1.000     O          -0.505697           
         O33       1.0000    0.33010   0.67100   0.79500   Biso      1.000     O          -0.524419           
         O34       1.0000    0.65690   0.34210   0.75200   Biso      1.000     O          -0.574102           
         O35       1.0000    0.34310   0.65790   0.90400   Biso      1.000     O          -0.602144           
         O36       1.0000    0.66990   0.32900   0.86200   Biso      1.000     O          -0.594318           
         O37       1.0000    0.16590   0.66440   0.60900   Biso      1.000     O          -0.577273           
         O38       1.0000    0.83380   0.33540   0.60900   Biso      1.000     O          -0.631571           
         O39       1.0000    0.16620   0.66460   0.71900   Biso      1.000     O          -0.600569           
         O40       1.0000    0.66620   0.16460   0.78100   Biso      1.000     O          -0.600569           
         O41       1.0000    0.81000   0.22900   0.14500   Biso      1.000     O          -0.755945           
         O42       1.0000    0.26422   0.75813   0.03896   Biso      1.000     O          -0.6345   
         O43       1.0000    0.70300   0.25814   0.30827   Biso      1.000     O          -0.987595           
         O44       1.0000    0.83880   0.16040   0.06800   Biso      1.000     O          -0.439965           
         O45       1.0000    0.16920   0.83170   0.04200   Biso      1.000     O          -0.563727           
         O46       1.0000    0.83410   0.33560   0.72000   Biso      1.000     O          -0.495817           
         O47       1.0000    0.16120   0.83960   0.93200   Biso      1.000     O          -0.506789           
         O48       1.0000    0.83080   0.16830   0.95800   Biso      1.000     O          -0.654057           
         O49       1.0000    0.73578   0.25813   0.96104   Biso      1.000     O          -0.634106           
         O50       1.0000    0.29700   0.75814   0.69173   Biso      1.000     O          -0.990144           
         O51       1.0000    0.16120   0.66040   0.93200   Biso      1.000     O          -0.438083           
         O52       1.0000    0.16590   0.83560   0.28000   Biso      1.000     O          -0.495794           
         O53       1.0000    0.83380   0.16460   0.28100   Biso      1.000     O          -0.600352           
         O54       1.0000    0.19000   0.72900   0.85500   Biso      1.000     O          -0.757945           
         O55       1.0000    0.83410   0.16440   0.39100   Biso      1.000     O          -0.578027           
         O56       1.0000    0.33010   0.82900   0.13800   Biso      1.000     O          -0.596636           
         O57       1.0000    0.65690   0.15790   0.09600   Biso      1.000     O          -0.59748  
         O58       1.0000    0.34310   0.84210   0.24800   Biso      1.000     O          -0.573597           
         O59       1.0000    0.66990   0.17100   0.20500   Biso      1.000     O          -0.523388           
         O60       1.0000    0.16620   0.83540   0.39100   Biso      1.000     O          -0.637764           
         V1        1.0000    0.73000   0.24600   0.39550   Biso      1.000     V          2.003782  
         V2        1.0000    0.23500   0.74400   0.43200   Biso      1.000     V          1.655628  
         V3        1.0000    0.76400   0.24200   0.72050   Biso      1.000     V          1.908003  
         V4        1.0000    0.27000   0.74600   0.60450   Biso      1.000     V          2.009729  
         V5        1.0000    0.76500   0.24400   0.56800   Biso      1.000     V          1.653745  
         V6        1.0000    0.26500   0.74400   0.93200   Biso      1.000     V          1.653746  
         V7        1.0000    0.77000   0.24600   0.89550   Biso      1.000     V          2.009729  
         V8        1.0000    0.73600   0.24200   0.22050   Biso      1.000     V          1.906665  
         V9        1.0000    0.23000   0.74600   0.10450   Biso      1.000     V          2.003783  
         V10       1.0000    0.73500   0.24400   0.06800   Biso      1.000     V          1.655628  
         V11       1.0000    0.26400   0.74200   0.77950   Biso      1.000     V          1.908004  
         V12       1.0000    0.23600   0.74200   0.27950   Biso      1.000     V          1.906665 