
##########################################################################
#               Crystallographic Information Format file
#               Produced by PyCifRW module
#
#  This is a CIF file.  CIF has been adopted by the International
#  Union of Crystallography as the standard for data archiving and
#  transmission.
#
#  For information on this file format, follow the CIF links at
#  http://www.iucr.org
##########################################################################

data_image0

_cell_length_a                          19.806
_cell_length_b                          7.366
_cell_length_c                          7.055
_cell_angle_alpha                       90
_cell_angle_beta                        104.36
_cell_angle_gamma                       90
_symmetry_space_group_name_H-M          'P 1'
_symmetry_int_tables_number             1
loop_
  _symmetry_equiv_pos_as_xyz
         'x, y, z' 
loop_
  _atom_site_label
  _atom_site_occupancy
  _atom_site_fract_x
  _atom_site_fract_y
  _atom_site_fract_z
  _atom_site_thermal_displace_type
  _atom_site_B_iso_or_equiv
  _atom_site_type_symbol
  _atom_site_charge
         Al1       1.0000    0.99872   0.00020   0.99870   Biso      1.000     Al          1.131127  
         Al2       1.0000    0.99872   0.99980   0.49870   Biso      1.000     Al          1.124243  
         Al3       1.0000    0.49872   0.49980   0.49870   Biso      1.000     Al          1.126685  
         Al4       1.0000    0.49872   0.50020   0.99870   Biso      1.000     Al          1.128085  
         C1        1.0000    0.40000   0.35000   0.17000   Biso      1.000     C          0.078715  
         C2        1.0000    0.07000   0.88000   0.56000   Biso      1.000     C          -0.25335599999999997          
         C3        1.0000    0.93000   0.87000   0.36000   Biso      1.000     C          -0.20441099999999998          
         C4        1.0000    0.19000   0.80000   0.49000   Biso      1.000     C          0.209707  
         C5        1.0000    0.22000   0.78000   0.36000   Biso      1.000     C          -0.12444000000000001          
         C6        1.0000    0.29000   0.73000   0.41000   Biso      1.000     C          -0.188863           
         C7        1.0000    0.32000   0.71000   0.61000   Biso      1.000     C          0.22153899999999999           
         C8        1.0000    0.11000   0.86000   0.43000   Biso      1.000     C          0.039432  
         C9        1.0000    0.08000   0.12000   0.75000   Biso      1.000     C          -0.10361  
         C10       1.0000    0.90000   0.85000   0.17000   Biso      1.000     C          0.076396  
         C11       1.0000    0.93000   0.13000   0.54000   Biso      1.000     C          -0.257417           
         C12       1.0000    0.57000   0.38000   0.56000   Biso      1.000     C          -0.288826           
         C13       1.0000    0.43000   0.37000   0.36000   Biso      1.000     C          -0.19805  
         C14       1.0000    0.69000   0.30000   0.49000   Biso      1.000     C          0.21113099999999999           
         C15       1.0000    0.72000   0.28000   0.36000   Biso      1.000     C          -0.12846  
         C16       1.0000    0.79000   0.23000   0.41000   Biso      1.000     C          -0.180169           
         C17       1.0000    0.82000   0.21000   0.61000   Biso      1.000     C          0.221773  
         C18       1.0000    0.61000   0.36000   0.43000   Biso      1.000     C          0.044497  
         C19       1.0000    0.58000   0.62000   0.75000   Biso      1.000     C          -0.09194  
         C20       1.0000    0.40000   0.65000   0.67000   Biso      1.000     C          0.07850800000000001           
         C21       1.0000    0.58000   0.38000   0.25000   Biso      1.000     C          -0.081426           
         C22       1.0000    0.43000   0.37000   0.04000   Biso      1.000     C          -0.263399           
         C23       1.0000    0.82000   0.79000   0.11000   Biso      1.000     C          0.221766  
         C24       1.0000    0.07000   0.12000   0.06000   Biso      1.000     C          -0.305174           
         C25       1.0000    0.93000   0.13000   0.86000   Biso      1.000     C          -0.183602           
         C26       1.0000    0.19000   0.20000   0.99000   Biso      1.000     C          0.207044  
         C27       1.0000    0.22000   0.22000   0.86000   Biso      1.000     C          -0.116127           
         C28       1.0000    0.29000   0.27000   0.91000   Biso      1.000     C          -0.186151           
         C29       1.0000    0.32000   0.29000   0.11000   Biso      1.000     C          0.223762  
         C30       1.0000    0.11000   0.14000   0.93000   Biso      1.000     C          0.049152  
         C31       1.0000    0.61000   0.64000   0.93000   Biso      1.000     C          0.048822000000000004          
         C32       1.0000    0.90000   0.15000   0.67000   Biso      1.000     C          0.07663099999999999           
         C33       1.0000    0.93000   0.87000   0.04000   Biso      1.000     C          -0.254562           
         C34       1.0000    0.08000   0.88000   0.25000   Biso      1.000     C          -0.083984           
         C35       1.0000    0.43000   0.63000   0.54000   Biso      1.000     C          -0.258637           
         C36       1.0000    0.57000   0.62000   0.06000   Biso      1.000     C          -0.298939           
         C37       1.0000    0.43000   0.63000   0.86000   Biso      1.000     C          -0.192247           
         C38       1.0000    0.69000   0.70000   0.99000   Biso      1.000     C          0.207603  
         C39       1.0000    0.79000   0.77000   0.91000   Biso      1.000     C          -0.188943           
         C40       1.0000    0.72000   0.72000   0.86000   Biso      1.000     C          -0.12181199999999999          
         O1        1.0000    0.99980   0.88990   0.74450   Biso      1.000     O          -0.580331           
         O2        1.0000    0.22000   0.22000   0.19000   Biso      1.000     O          -0.024527           
         O3        1.0000    0.29000   0.27000   0.25000   Biso      1.000     O          0.050216000000000004          
         O4        1.0000    0.99980   0.11010   0.24450   Biso      1.000     O          -0.559794           
         O5        1.0000    0.72000   0.72000   0.19000   Biso      1.000     O          -0.022869           
         O6        1.0000    0.49980   0.38990   0.74450   Biso      1.000     O          -0.572298           
         O7        1.0000    0.79000   0.23000   0.75000   Biso      1.000     O          0.045683  
         O8        1.0000    0.72000   0.28000   0.69000   Biso      1.000     O          -0.020998           
         O9        1.0000    0.49980   0.61010   0.24450   Biso      1.000     O          -0.5585289999999999           
         O10       1.0000    0.79000   0.77000   0.25000   Biso      1.000     O          0.050187  
         O11       1.0000    0.22000   0.78000   0.69000   Biso      1.000     O          -0.028624           
         O12       1.0000    0.29000   0.73000   0.75000   Biso      1.000     O          0.049808 