
##########################################################################
#               Crystallographic Information Format file
#               Produced by PyCifRW module
#
#  This is a CIF file.  CIF has been adopted by the International
#  Union of Crystallography as the standard for data archiving and
#  transmission.
#
#  For information on this file format, follow the CIF links at
#  http://www.iucr.org
##########################################################################

data_image0

_cell_length_a                          10.124
_cell_length_b                          10.281
_cell_length_c                          16.33
_cell_angle_alpha                       90
_cell_angle_beta                        95.34
_cell_angle_gamma                       90
_symmetry_space_group_name_H-M          'P 1'
_symmetry_int_tables_number             1
loop_
  _symmetry_equiv_pos_as_xyz
         'x, y, z' 
loop_
  _atom_site_label
  _atom_site_occupancy
  _atom_site_fract_x
  _atom_site_fract_y
  _atom_site_fract_z
  _atom_site_thermal_displace_type
  _atom_site_B_iso_or_equiv
  _atom_site_type_symbol
  _atom_site_charge
         C1        1.0000    0.82900   0.78250   0.65620   Biso      1.000     C          -0.009958           
         C2        1.0000    0.17100   0.21750   0.34380   Biso      1.000     C          -0.009955           
         C3        1.0000    0.40290   0.16950   0.33490   Biso      1.000     C          0.0050030000000000005         
         C4        1.0000    0.20090   0.01630   0.15160   Biso      1.000     C          0.6226649999999999  
         C5        1.0000    0.06430   0.27990   0.38930   Biso      1.000     C          0.613027  
         C6        1.0000    0.54530   0.18760   0.36700   Biso      1.000     C          0.566607  
         C7        1.0000    0.36870   0.09910   0.26300   Biso      1.000     C          -0.117164           
         C8        1.0000    0.30260   0.22750   0.37420   Biso      1.000     C          -0.114071           
         C9        1.0000    0.23750   0.08970   0.23050   Biso      1.000     C          -0.0039049999999999996        
         C10       1.0000    0.69740   0.72750   0.12580   Biso      1.000     C          -0.113973           
         C11       1.0000    0.82900   0.71750   0.15620   Biso      1.000     C          -0.009865           
         C12       1.0000    0.59710   0.66950   0.16510   Biso      1.000     C          0.005075  
         C13       1.0000    0.79910   0.51630   0.34840   Biso      1.000     C          0.621851  
         C14       1.0000    0.93570   0.77990   0.11070   Biso      1.000     C          0.613588  
         C15       1.0000    0.45470   0.68760   0.13300   Biso      1.000     C          0.566705  
         C16       1.0000    0.86140   0.64830   0.22830   Biso      1.000     C          -0.12283800000000002          
         C17       1.0000    0.13860   0.14830   0.27170   Biso      1.000     C          -0.122994           
         C18       1.0000    0.86140   0.85170   0.72830   Biso      1.000     C          -0.122977           
         C19       1.0000    0.69740   0.77250   0.62580   Biso      1.000     C          -0.11406600000000001          
         C20       1.0000    0.23750   0.41030   0.73050   Biso      1.000     C          -0.004304           
         C21       1.0000    0.36870   0.40090   0.76300   Biso      1.000     C          -0.116823           
         C22       1.0000    0.54530   0.31240   0.86700   Biso      1.000     C          0.566713  
         C23       1.0000    0.06430   0.22010   0.88930   Biso      1.000     C          0.6135649999999999  
         C24       1.0000    0.20090   0.48370   0.65160   Biso      1.000     C          0.621833  
         C25       1.0000    0.40290   0.33050   0.83490   Biso      1.000     C          0.005068  
         C26       1.0000    0.17100   0.28250   0.84380   Biso      1.000     C          -0.00987  
         C27       1.0000    0.30260   0.27250   0.87420   Biso      1.000     C          -0.11398499999999999          
         C28       1.0000    0.13860   0.35170   0.77170   Biso      1.000     C          -0.12287000000000001          
         C29       1.0000    0.76250   0.91030   0.76950   Biso      1.000     C          -0.00391  
         C30       1.0000    0.63130   0.90090   0.73700   Biso      1.000     C          -0.117149           
         C31       1.0000    0.45470   0.81240   0.63300   Biso      1.000     C          0.566601  
         C32       1.0000    0.93570   0.72010   0.61070   Biso      1.000     C          0.613035  
         C33       1.0000    0.79910   0.98370   0.84840   Biso      1.000     C          0.622698  
         C34       1.0000    0.59710   0.83050   0.66510   Biso      1.000     C          0.005002  
         C35       1.0000    0.63130   0.59910   0.23700   Biso      1.000     C          -0.116802           
         C36       1.0000    0.76250   0.58970   0.26950   Biso      1.000     C          -0.004303           
         Co1       1.0000    0.22691   0.75397   0.07756   Biso      1.000     Co          0.8725219999999999  
         Co2       1.0000    0.00000   0.50000   0.50000   Biso      1.000     Co          0.926163  
         Co3       1.0000    0.77309   0.25397   0.42244   Biso      1.000     Co          0.8696860000000001  
         Co4       1.0000    0.77309   0.24603   0.92244   Biso      1.000     Co          0.8725120000000001  
         Co5       1.0000    0.22691   0.74603   0.57756   Biso      1.000     Co          0.869676  
         Co6       1.0000    0.00000   0.00000   0.00000   Biso      1.000     Co          0.929027  
         H1        1.0000    0.05460   0.35660   0.74770   Biso      1.000     H          0.135466  
         H2        1.0000    0.32620   0.27040   0.41990   Biso      1.000     H          0.136993  
         H3        1.0000    0.43160   0.06140   0.23880   Biso      1.000     H          0.137776  
         H4        1.0000    0.05460   0.14340   0.24770   Biso      1.000     H          0.135498  
         H5        1.0000    0.43160   0.43860   0.73880   Biso      1.000     H          0.137791  
         H6        1.0000    0.56840   0.56140   0.26120   Biso      1.000     H          0.137796  
         H7        1.0000    0.94540   0.64340   0.25230   Biso      1.000     H          0.135474  
         H8        1.0000    0.67380   0.72960   0.58010   Biso      1.000     H          0.136991  
         H9        1.0000    0.56840   0.93860   0.76120   Biso      1.000     H          0.137775  
         H10       1.0000    0.94540   0.85660   0.75230   Biso      1.000     H          0.135501  
         H11       1.0000    0.32620   0.22960   0.91990   Biso      1.000     H          0.136985  
         H12       1.0000    0.67380   0.77040   0.08010   Biso      1.000     H          0.13699   
         O1        1.0000    0.89650   0.63980   0.55530   Biso      1.000     O          -0.5418350000000001           
         O2        1.0000    0.36230   0.83850   0.67690   Biso      1.000     O          -0.49224700000000005          
         O3        1.0000    0.05340   0.75330   0.63160   Biso      1.000     O          -0.545987           
         O4        1.0000    0.43080   0.76810   0.56030   Biso      1.000     O          -0.52584  
         O5        1.0000    0.10350   0.13980   0.94470   Biso      1.000     O          -0.543068           
         O6        1.0000    0.94660   0.25330   0.86840   Biso      1.000     O          -0.546512           
         O7        1.0000    0.27930   0.57110   0.63280   Biso      1.000     O          -0.524416           
         O8        1.0000    0.63770   0.33850   0.82310   Biso      1.000     O          -0.492802           
         O9        1.0000    0.72070   0.07110   0.86720   Biso      1.000     O          -0.525831           
         O10       1.0000    0.90570   0.95010   0.88790   Biso      1.000     O          -0.553194           
         O11       1.0000    0.90570   0.54990   0.38790   Biso      1.000     O          -0.55077  
         O12       1.0000    0.94660   0.24670   0.36840   Biso      1.000     O          -0.545959           
         O13       1.0000    0.05340   0.74670   0.13160   Biso      1.000     O          -0.5465760000000001           
         O14       1.0000    0.36230   0.66150   0.17690   Biso      1.000     O          -0.49276099999999995          
         O15       1.0000    0.89650   0.86020   0.05530   Biso      1.000     O          -0.543063           
         O16       1.0000    0.72070   0.42890   0.36720   Biso      1.000     O          -0.524424           
         O17       1.0000    0.09430   0.04990   0.11210   Biso      1.000     O          -0.553184           
         O18       1.0000    0.56920   0.23190   0.43970   Biso      1.000     O          -0.525849           
         O19       1.0000    0.63770   0.16150   0.32310   Biso      1.000     O          -0.492267           
         O20       1.0000    0.10350   0.36020   0.44470   Biso      1.000     O          -0.541833           
         O21       1.0000    0.27930   0.92890   0.13280   Biso      1.000     O          -0.525805           
         O22       1.0000    0.56920   0.26810   0.93970   Biso      1.000     O          -0.526464           
         O23       1.0000    0.43080   0.73190   0.06030   Biso      1.000     O          -0.526428           
         O24       1.0000    0.09430   0.45010   0.61210   Biso      1.000     O          -0.550763 