
##########################################################################
#               Crystallographic Information Format file
#               Produced by PyCifRW module
#
#  This is a CIF file.  CIF has been adopted by the International
#  Union of Crystallography as the standard for data archiving and
#  transmission.
#
#  For information on this file format, follow the CIF links at
#  http://www.iucr.org
##########################################################################

data_image0

_cell_length_a                          15.2563
_cell_length_b                          16.0699
_cell_length_c                          23.5937
_cell_angle_alpha                       90
_cell_angle_beta                        90
_cell_angle_gamma                       118.339
_symmetry_space_group_name_H-M          'P 1'
_symmetry_int_tables_number             1
loop_
  _symmetry_equiv_pos_as_xyz
         'x, y, z' 
loop_
  _atom_site_label
  _atom_site_occupancy
  _atom_site_fract_x
  _atom_site_fract_y
  _atom_site_fract_z
  _atom_site_thermal_displace_type
  _atom_site_B_iso_or_equiv
  _atom_site_type_symbol
  _atom_site_charge
         C1        1.0000    0.84195   0.66978   0.81574   Biso      1.000     C          -0.199096           
         C2        1.0000    0.37684   0.40520   0.42401   Biso      1.000     C          0.601051  
         C3        1.0000    0.02624   0.04878   0.79995   Biso      1.000     C          -0.181002           
         C4        1.0000    0.14043   0.38036   0.85739   Biso      1.000     C          -0.085237           
         C5        1.0000    0.15805   0.33022   0.81574   Biso      1.000     C          -0.199094           
         C6        1.0000    0.08184   0.24964   0.79343   Biso      1.000     C          0.201639  
         C7        1.0000    0.98593   0.21996   0.81298   Biso      1.000     C          -0.203943           
         C8        1.0000    0.96792   0.26948   0.85618   Biso      1.000     C          -0.089806           
         C9        1.0000    0.04603   0.35056   0.87845   Biso      1.000     C          -0.03705  
         C10       1.0000    0.62316   0.59480   0.57599   Biso      1.000     C          0.601048  
         C11       1.0000    0.69547   0.64944   0.62155   Biso      1.000     C          -0.037049           
         C12       1.0000    0.69844   0.73052   0.64382   Biso      1.000     C          -0.089817           
         C13       1.0000    0.76597   0.78004   0.68702   Biso      1.000     C          -0.203875           
         C14       1.0000    0.83220   0.75036   0.70657   Biso      1.000     C          0.201575  
         C15       1.0000    0.82783   0.66978   0.68426   Biso      1.000     C          -0.199056           
         C16       1.0000    0.30453   0.35056   0.37845   Biso      1.000     C          -0.037041           
         C17       1.0000    0.76007   0.61964   0.64261   Biso      1.000     C          -0.085246           
         C18       1.0000    0.37684   0.40520   0.57599   Biso      1.000     C          0.601048  
         C19       1.0000    0.30453   0.35056   0.62155   Biso      1.000     C          -0.037049           
         C20       1.0000    0.30156   0.26948   0.64382   Biso      1.000     C          -0.089817           
         C21       1.0000    0.23403   0.21996   0.68702   Biso      1.000     C          -0.203875           
         C22       1.0000    0.16780   0.24964   0.70657   Biso      1.000     C          0.201575  
         C23       1.0000    0.17217   0.33022   0.68426   Biso      1.000     C          -0.199056           
         C24       1.0000    0.23993   0.38036   0.64261   Biso      1.000     C          -0.085246           
         C25       1.0000    0.02254   0.04878   0.70005   Biso      1.000     C          -0.180998           
         C26       1.0000    0.97164   0.59480   0.92401   Biso      1.000     C          0.601052  
         C27       1.0000    0.95397   0.64944   0.87845   Biso      1.000     C          -0.037054           
         C28       1.0000    0.03208   0.73052   0.85618   Biso      1.000     C          -0.089803           
         C29       1.0000    0.01407   0.78004   0.81298   Biso      1.000     C          -0.203945           
         C30       1.0000    0.91816   0.75036   0.79343   Biso      1.000     C          0.20164   
         C31       1.0000    0.02836   0.40520   0.92401   Biso      1.000     C          0.601052  
         C32       1.0000    0.97746   0.95122   0.70005   Biso      1.000     C          -0.180986           
         C33       1.0000    0.30156   0.26948   0.35618   Biso      1.000     C          -0.089815           
         C34       1.0000    0.23403   0.21996   0.31298   Biso      1.000     C          -0.203873           
         C35       1.0000    0.16780   0.24964   0.29343   Biso      1.000     C          0.201573  
         C36       1.0000    0.95021   0.90042   0.25000   Biso      1.000     C          0.176892  
         C37       1.0000    0.04979   0.09958   0.25000   Biso      1.000     C          0.176892  
         C38       1.0000    0.04979   0.09958   0.75000   Biso      1.000     C          0.176888  
         C39       1.0000    0.95021   0.90042   0.75000   Biso      1.000     C          0.176883  
         C40       1.0000    0.97376   0.95122   0.20005   Biso      1.000     C          -0.180995           
         C41       1.0000    0.85957   0.61964   0.14261   Biso      1.000     C          -0.085235           
         C42       1.0000    0.84195   0.66978   0.18426   Biso      1.000     C          -0.199091           
         C43       1.0000    0.91816   0.75036   0.20657   Biso      1.000     C          0.201636  
         C44       1.0000    0.01407   0.78004   0.18702   Biso      1.000     C          -0.203941           
         C45       1.0000    0.03208   0.73052   0.14382   Biso      1.000     C          -0.089804           
         C46       1.0000    0.95397   0.64944   0.12155   Biso      1.000     C          -0.03704  
         C47       1.0000    0.97164   0.59480   0.07599   Biso      1.000     C          0.601053  
         C48       1.0000    0.02624   0.04878   0.20005   Biso      1.000     C          -0.180984           
         C49       1.0000    0.14043   0.38036   0.14261   Biso      1.000     C          -0.085235           
         C50       1.0000    0.15805   0.33022   0.18426   Biso      1.000     C          -0.199091           
         C51       1.0000    0.08184   0.24964   0.20657   Biso      1.000     C          0.201636  
         C52       1.0000    0.98593   0.21996   0.18702   Biso      1.000     C          -0.203941           
         C53       1.0000    0.17217   0.33022   0.31574   Biso      1.000     C          -0.199053           
         C54       1.0000    0.23993   0.38036   0.35739   Biso      1.000     C          -0.085244           
         C55       1.0000    0.02254   0.04878   0.29995   Biso      1.000     C          -0.180992           
         C56       1.0000    0.62316   0.59480   0.42401   Biso      1.000     C          0.601051  
         C57       1.0000    0.69547   0.64944   0.37845   Biso      1.000     C          -0.037041           
         C58       1.0000    0.69844   0.73052   0.35618   Biso      1.000     C          -0.089815           
         C59       1.0000    0.85957   0.61964   0.85739   Biso      1.000     C          -0.085234           
         C60       1.0000    0.76597   0.78004   0.31298   Biso      1.000     C          -0.203873           
         C61       1.0000    0.82783   0.66978   0.31574   Biso      1.000     C          -0.199058           
         C62       1.0000    0.76007   0.61964   0.35739   Biso      1.000     C          -0.085243           
         C63       1.0000    0.97746   0.95122   0.29995   Biso      1.000     C          -0.180981           
         C64       1.0000    0.02836   0.40520   0.07599   Biso      1.000     C          0.601053  
         C65       1.0000    0.04603   0.35056   0.12155   Biso      1.000     C          -0.037042           
         C66       1.0000    0.96792   0.26948   0.14382   Biso      1.000     C          -0.089802           
         C67       1.0000    0.83220   0.75036   0.29343   Biso      1.000     C          0.201577  
         C68       1.0000    0.97376   0.95122   0.79995   Biso      1.000     C          -0.180987           
         Cu1       1.0000    0.53432   0.43824   0.50000   Biso      1.000     Cu          0.877698  
         Cu2       1.0000    0.46568   0.56176   0.50000   Biso      1.000     Cu          0.877694  
         Cu3       1.0000    0.90392   0.43824   0.00000   Biso      1.000     Cu          0.877729  
         Cu4       1.0000    0.09608   0.56176   0.00000   Biso      1.000     Cu          0.87773   
         H1        1.0000    0.95390   0.91920   0.16570   Biso      1.000     H          0.125664  
         H2        1.0000    0.90360   0.24800   0.86990   Biso      1.000     H          0.123988  
         H3        1.0000    0.95390   0.91920   0.83430   Biso      1.000     H          0.125658  
         H4        1.0000    0.80680   0.56460   0.87160   Biso      1.000     H          0.121224  
         H5        1.0000    0.77740   0.64860   0.80260   Biso      1.000     H          0.127287  
         H6        1.0000    0.06690   0.83340   0.79730   Biso      1.000     H          0.12717   
         H7        1.0000    0.09640   0.75200   0.86990   Biso      1.000     H          0.123988  
         H8        1.0000    0.03470   0.08080   0.66570   Biso      1.000     H          0.12566   
         H9        1.0000    0.23350   0.16660   0.70270   Biso      1.000     H          0.127134  
         H10       1.0000    0.93310   0.16660   0.79730   Biso      1.000     H          0.12717   
         H11       1.0000    0.34440   0.24800   0.63010   Biso      1.000     H          0.123994  
         H12       1.0000    0.96530   0.91920   0.66570   Biso      1.000     H          0.125659  
         H13       1.0000    0.75780   0.56460   0.62840   Biso      1.000     H          0.121231  
         H14       1.0000    0.87120   0.64860   0.69740   Biso      1.000     H          0.127284  
         H15       1.0000    0.76650   0.83340   0.70270   Biso      1.000     H          0.127133  
         H16       1.0000    0.65560   0.75200   0.63010   Biso      1.000     H          0.123993  
         H17       1.0000    0.12880   0.35140   0.69740   Biso      1.000     H          0.127284  
         H18       1.0000    0.22260   0.35140   0.80260   Biso      1.000     H          0.127287  
         H19       1.0000    0.24220   0.43540   0.62840   Biso      1.000     H          0.121231  
         H20       1.0000    0.04610   0.08080   0.83430   Biso      1.000     H          0.125659  
         H21       1.0000    0.19320   0.43540   0.87160   Biso      1.000     H          0.121224  
         H22       1.0000    0.77740   0.64860   0.19740   Biso      1.000     H          0.127288  
         H23       1.0000    0.06690   0.83340   0.20270   Biso      1.000     H          0.12717   
         H24       1.0000    0.09640   0.75200   0.13010   Biso      1.000     H          0.12399   
         H25       1.0000    0.04610   0.08080   0.16570   Biso      1.000     H          0.125663  
         H26       1.0000    0.19320   0.43540   0.12840   Biso      1.000     H          0.121225  
         H27       1.0000    0.22260   0.35140   0.19740   Biso      1.000     H          0.127288  
         H28       1.0000    0.93310   0.16660   0.20270   Biso      1.000     H          0.12717   
         H29       1.0000    0.90360   0.24800   0.13010   Biso      1.000     H          0.12399   
         H30       1.0000    0.96530   0.91920   0.33430   Biso      1.000     H          0.125664  
         H31       1.0000    0.80680   0.56460   0.12840   Biso      1.000     H          0.121225  
         H32       1.0000    0.87120   0.64860   0.30260   Biso      1.000     H          0.127285  
         H33       1.0000    0.76650   0.83340   0.29730   Biso      1.000     H          0.127135  
         H34       1.0000    0.65560   0.75200   0.36990   Biso      1.000     H          0.123996  
         H35       1.0000    0.03470   0.08080   0.33430   Biso      1.000     H          0.125664  
         H36       1.0000    0.24220   0.43540   0.37160   Biso      1.000     H          0.121232  
         H37       1.0000    0.12880   0.35140   0.30260   Biso      1.000     H          0.127285  
         H38       1.0000    0.23350   0.16660   0.29730   Biso      1.000     H          0.127134  
         H39       1.0000    0.34440   0.24800   0.36990   Biso      1.000     H          0.123996  
         H40       1.0000    0.75780   0.56460   0.37160   Biso      1.000     H          0.121233  
         N1        1.0000    0.90035   0.80070   0.75000   Biso      1.000     N          -0.149029           
         N2        1.0000    0.09965   0.19930   0.75000   Biso      1.000     N          -0.149029           
         N3        1.0000    0.09965   0.19930   0.25000   Biso      1.000     N          -0.149015           
         N4        1.0000    0.90035   0.80070   0.25000   Biso      1.000     N          -0.149015           
         O1        1.0000    0.62395   0.52198   0.44164   Biso      1.000     O          -0.540898           
         O2        1.0000    0.56727   0.62720   0.44163   Biso      1.000     O          -0.543802           
         O3        1.0000    0.89803   0.52198   0.05836   Biso      1.000     O          -0.540895           
         O4        1.0000    0.94007   0.37280   0.05837   Biso      1.000     O          -0.543803           
         O5        1.0000    0.43273   0.37280   0.44163   Biso      1.000     O          -0.543803           
         O6        1.0000    0.10197   0.47802   0.05836   Biso      1.000     O          -0.540895           
         O7        1.0000    0.37605   0.47802   0.44164   Biso      1.000     O          -0.540897           
         O8        1.0000    0.56727   0.62720   0.55837   Biso      1.000     O          -0.5438   
         O9        1.0000    0.10197   0.47802   0.94164   Biso      1.000     O          -0.540894           
         O10       1.0000    0.05993   0.62720   0.94163   Biso      1.000     O          -0.543802           
         O11       1.0000    0.89803   0.52198   0.94164   Biso      1.000     O          -0.540894           
         O12       1.0000    0.43273   0.37280   0.55837   Biso      1.000     O          -0.543801           
         O13       1.0000    0.37605   0.47802   0.55836   Biso      1.000     O          -0.540895           
         O14       1.0000    0.62395   0.52198   0.55836   Biso      1.000     O          -0.540896           
         O15       1.0000    0.94007   0.37280   0.94163   Biso      1.000     O          -0.543802           
         O16       1.0000    0.05993   0.62720   0.05837   Biso      1.000     O          -0.543803 