
##########################################################################
#               Crystallographic Information Format file
#               Produced by PyCifRW module
#
#  This is a CIF file.  CIF has been adopted by the International
#  Union of Crystallography as the standard for data archiving and
#  transmission.
#
#  For information on this file format, follow the CIF links at
#  http://www.iucr.org
##########################################################################

data_image0

_cell_length_a                          15.376
_cell_length_b                          19.8482
_cell_length_c                          19.8482
_cell_angle_alpha                       73.3583
_cell_angle_beta                        67.2109
_cell_angle_gamma                       67.2109
_symmetry_space_group_name_H-M          'P 1'
_symmetry_int_tables_number             1
loop_
  _symmetry_equiv_pos_as_xyz
         'x, y, z' 
loop_
  _atom_site_label
  _atom_site_occupancy
  _atom_site_fract_x
  _atom_site_fract_y
  _atom_site_fract_z
  _atom_site_thermal_displace_type
  _atom_site_B_iso_or_equiv
  _atom_site_type_symbol
  _atom_site_charge
         C1        1.0000    0.83953   0.73232   0.10322   Biso      1.000     C          -0.20391900000000002          
         C2        1.0000    0.37509   0.47163   0.62263   Biso      1.000     C          0.604425  
         C3        1.0000    0.04178   0.02403   0.42681   Biso      1.000     C          -0.17616800000000002          
         C4        1.0000    0.24233   0.70000   0.41470   Biso      1.000     C          -0.089435           
         C5        1.0000    0.17507   0.76768   0.39678   Biso      1.000     C          -0.200738           
         C6        1.0000    0.16789   0.83046   0.41808   Biso      1.000     C          0.206785  
         C7        1.0000    0.22807   0.82569   0.45697   Biso      1.000     C          -0.20923699999999998          
         C8        1.0000    0.29431   0.75808   0.47510   Biso      1.000     C          -0.08430800000000001          
         C9        1.0000    0.30291   0.69521   0.45375   Biso      1.000     C          -0.036708           
         C10       1.0000    0.62491   0.52837   0.37737   Biso      1.000     C          0.604425  
         C11       1.0000    0.69709   0.54625   0.30479   Biso      1.000     C          -0.036711           
         C12       1.0000    0.70569   0.52490   0.24192   Biso      1.000     C          -0.08430399999999999          
         C13       1.0000    0.77193   0.54303   0.17431   Biso      1.000     C          -0.209238           
         C14       1.0000    0.83211   0.58192   0.16954   Biso      1.000     C          0.20678400000000002           
         C15       1.0000    0.82493   0.60322   0.23232   Biso      1.000     C          -0.200734           
         C16       1.0000    0.30291   0.45375   0.69521   Biso      1.000     C          -0.036712           
         C17       1.0000    0.75767   0.58530   0.30000   Biso      1.000     C          -0.089435           
         C18       1.0000    0.03065   0.97163   0.12263   Biso      1.000     C          0.599314  
         C19       1.0000    0.04813   0.95375   0.19521   Biso      1.000     C          -0.037449           
         C20       1.0000    0.97251   0.97510   0.25808   Biso      1.000     C          -0.088159           
         C21       1.0000    0.98927   0.95697   0.32569   Biso      1.000     C          -0.205188           
         C22       1.0000    0.08357   0.91808   0.33046   Biso      1.000     C          0.205792  
         C23       1.0000    0.16047   0.89678   0.26768   Biso      1.000     C          -0.20391800000000002          
         C24       1.0000    0.14297   0.91470   0.20000   Biso      1.000     C          -0.085656           
         C25       1.0000    0.00738   0.92681   0.52403   Biso      1.000     C          -0.175264           
         C26       1.0000    0.96935   0.87737   0.02837   Biso      1.000     C          0.599314  
         C27       1.0000    0.95187   0.80479   0.04625   Biso      1.000     C          -0.037449           
         C28       1.0000    0.02749   0.74192   0.02490   Biso      1.000     C          -0.088157           
         C29       1.0000    0.01073   0.67431   0.04303   Biso      1.000     C          -0.205188           
         C30       1.0000    0.91643   0.66954   0.08192   Biso      1.000     C          0.20579299999999998           
         C31       1.0000    0.37509   0.62263   0.47163   Biso      1.000     C          0.604424  
         C32       1.0000    0.95822   0.57319   0.97597   Biso      1.000     C          -0.17616700000000002          
         C33       1.0000    0.29431   0.47510   0.75808   Biso      1.000     C          -0.08430399999999999          
         C34       1.0000    0.22807   0.45697   0.82569   Biso      1.000     C          -0.209238           
         C35       1.0000    0.16789   0.41808   0.83046   Biso      1.000     C          0.20678400000000002           
         C36       1.0000    0.94996   0.05004   0.55004   Biso      1.000     C          0.175609  
         C37       1.0000    0.05004   0.44996   0.94996   Biso      1.000     C          0.175611  
         C38       1.0000    0.05004   0.94996   0.44996   Biso      1.000     C          0.175622  
         C39       1.0000    0.94996   0.55004   0.05004   Biso      1.000     C          0.175616  
         C40       1.0000    0.95822   0.97597   0.57319   Biso      1.000     C          -0.176143           
         C41       1.0000    0.75767   0.30000   0.58530   Biso      1.000     C          -0.089435           
         C42       1.0000    0.82493   0.23232   0.60322   Biso      1.000     C          -0.200737           
         C43       1.0000    0.83211   0.16954   0.58192   Biso      1.000     C          0.206785  
         C44       1.0000    0.77193   0.17431   0.54303   Biso      1.000     C          -0.20923699999999998          
         C45       1.0000    0.70569   0.24192   0.52490   Biso      1.000     C          -0.084307           
         C46       1.0000    0.69709   0.30479   0.54625   Biso      1.000     C          -0.036707           
         C47       1.0000    0.62491   0.37737   0.52837   Biso      1.000     C          0.604424  
         C48       1.0000    0.00738   0.52403   0.92681   Biso      1.000     C          -0.17524  
         C49       1.0000    0.14297   0.20000   0.91470   Biso      1.000     C          -0.08565700000000001          
         C50       1.0000    0.16047   0.26768   0.89678   Biso      1.000     C          -0.20391900000000002          
         C51       1.0000    0.08357   0.33046   0.91808   Biso      1.000     C          0.20579   
         C52       1.0000    0.98927   0.32569   0.95697   Biso      1.000     C          -0.205186           
         C53       1.0000    0.17507   0.39678   0.76768   Biso      1.000     C          -0.200734           
         C54       1.0000    0.24233   0.41470   0.70000   Biso      1.000     C          -0.089435           
         C55       1.0000    0.04178   0.42681   0.02403   Biso      1.000     C          -0.17616099999999998          
         C56       1.0000    0.96935   0.02837   0.87737   Biso      1.000     C          0.599314  
         C57       1.0000    0.95187   0.04625   0.80479   Biso      1.000     C          -0.037449           
         C58       1.0000    0.02749   0.02490   0.74192   Biso      1.000     C          -0.088158           
         C59       1.0000    0.85703   0.80000   0.08530   Biso      1.000     C          -0.085656           
         C60       1.0000    0.01073   0.04303   0.67431   Biso      1.000     C          -0.205188           
         C61       1.0000    0.83953   0.10322   0.73232   Biso      1.000     C          -0.20391800000000002          
         C62       1.0000    0.85703   0.08530   0.80000   Biso      1.000     C          -0.085656           
         C63       1.0000    0.99262   0.07319   0.47597   Biso      1.000     C          -0.17524  
         C64       1.0000    0.03065   0.12263   0.97163   Biso      1.000     C          0.599314  
         C65       1.0000    0.04813   0.19521   0.95375   Biso      1.000     C          -0.037448           
         C66       1.0000    0.97251   0.25808   0.97510   Biso      1.000     C          -0.088158           
         C67       1.0000    0.91643   0.08192   0.66954   Biso      1.000     C          0.20579299999999998           
         C68       1.0000    0.99262   0.47597   0.07319   Biso      1.000     C          -0.175242           
         Cu1       1.0000    0.53100   0.53200   0.53200   Biso      1.000     Cu          0.873199  
         Cu2       1.0000    0.09500   0.96800   0.96800   Biso      1.000     Cu          0.8736950000000001  
         Cu3       1.0000    0.90500   0.03200   0.03200   Biso      1.000     Cu          0.8737010000000001  
         Cu4       1.0000    0.46900   0.46800   0.46800   Biso      1.000     Cu          0.873194  
         H1        1.0000    0.93000   0.95910   0.62290   Biso      1.000     H          0.12849000000000002           
         H2        1.0000    0.33360   0.75520   0.50220   Biso      1.000     H          0.12226   
         H3        1.0000    0.98800   0.45910   0.12290   Biso      1.000     H          0.128024  
         H4        1.0000    0.80490   0.84220   0.09960   Biso      1.000     H          0.123252  
         H5        1.0000    0.77580   0.72940   0.12960   Biso      1.000     H          0.12731800000000001           
         H6        1.0000    0.06310   0.63210   0.02890   Biso      1.000     H          0.126885  
         H7        1.0000    0.09100   0.74480   0.99780   Biso      1.000     H          0.123884  
         H8        1.0000    0.01200   0.87710   0.54090   Biso      1.000     H          0.128026  
         H9        1.0000    0.93690   0.97110   0.36790   Biso      1.000     H          0.126885  
         H10       1.0000    0.22410   0.86790   0.47110   Biso      1.000     H          0.127645  
         H11       1.0000    0.90900   0.00220   0.25520   Biso      1.000     H          0.123884  
         H12       1.0000    0.93000   0.62290   0.95910   Biso      1.000     H          0.128492  
         H13       1.0000    0.75330   0.59960   0.34220   Biso      1.000     H          0.124201  
         H14       1.0000    0.86520   0.62960   0.22940   Biso      1.000     H          0.125836  
         H15       1.0000    0.77590   0.52890   0.13210   Biso      1.000     H          0.127645  
         H16       1.0000    0.66640   0.49780   0.24480   Biso      1.000     H          0.12225899999999999           
         H17       1.0000    0.22420   0.87040   0.27060   Biso      1.000     H          0.12731800000000001           
         H18       1.0000    0.13480   0.77060   0.37040   Biso      1.000     H          0.12583699999999998           
         H19       1.0000    0.19510   0.90040   0.15780   Biso      1.000     H          0.123254  
         H20       1.0000    0.07000   0.04090   0.37710   Biso      1.000     H          0.12849100000000002           
         H21       1.0000    0.24670   0.65780   0.40040   Biso      1.000     H          0.124201  
         H22       1.0000    0.86520   0.22940   0.62960   Biso      1.000     H          0.12583699999999998           
         H23       1.0000    0.77590   0.13210   0.52890   Biso      1.000     H          0.127645  
         H24       1.0000    0.66640   0.24480   0.49780   Biso      1.000     H          0.12225899999999999           
         H25       1.0000    0.01200   0.54090   0.87710   Biso      1.000     H          0.128024  
         H26       1.0000    0.19510   0.15780   0.90040   Biso      1.000     H          0.123254  
         H27       1.0000    0.22420   0.27060   0.87040   Biso      1.000     H          0.12731800000000001           
         H28       1.0000    0.93690   0.36790   0.97110   Biso      1.000     H          0.126885  
         H29       1.0000    0.90900   0.25520   0.00220   Biso      1.000     H          0.123884  
         H30       1.0000    0.98800   0.12290   0.45910   Biso      1.000     H          0.128024  
         H31       1.0000    0.75330   0.34220   0.59960   Biso      1.000     H          0.124201  
         H32       1.0000    0.77580   0.12960   0.72940   Biso      1.000     H          0.12731800000000001           
         H33       1.0000    0.06310   0.02890   0.63210   Biso      1.000     H          0.126885  
         H34       1.0000    0.09100   0.99780   0.74480   Biso      1.000     H          0.123884  
         H35       1.0000    0.07000   0.37710   0.04090   Biso      1.000     H          0.12849100000000002           
         H36       1.0000    0.24670   0.40040   0.65780   Biso      1.000     H          0.124201  
         H37       1.0000    0.13480   0.37040   0.77060   Biso      1.000     H          0.12583699999999998           
         H38       1.0000    0.22410   0.47110   0.86790   Biso      1.000     H          0.127645  
         H39       1.0000    0.33360   0.50220   0.75520   Biso      1.000     H          0.12225899999999999           
         H40       1.0000    0.80490   0.09960   0.84220   Biso      1.000     H          0.123252  
         N1        1.0000    0.89918   0.60082   0.10082   Biso      1.000     N          -0.156182           
         N2        1.0000    0.10082   0.89918   0.39918   Biso      1.000     N          -0.156182           
         N3        1.0000    0.10082   0.39918   0.89918   Biso      1.000     N          -0.156181           
         N4        1.0000    0.89918   0.10082   0.60082   Biso      1.000     N          -0.156182           
         O1        1.0000    0.89667   0.04892   0.93230   Biso      1.000     O          -0.541675           
         O2        1.0000    0.05712   0.99419   0.87817   Biso      1.000     O          -0.543501           
         O3        1.0000    0.62211   0.43230   0.54892   Biso      1.000     O          -0.54468  
         O4        1.0000    0.94288   0.12183   0.00581   Biso      1.000     O          -0.543501           
         O5        1.0000    0.42948   0.50581   0.62183   Biso      1.000     O          -0.544936           
         O6        1.0000    0.10333   0.06770   0.95108   Biso      1.000     O          -0.541676           
         O7        1.0000    0.37789   0.45108   0.56770   Biso      1.000     O          -0.54468  
         O8        1.0000    0.57052   0.49419   0.37817   Biso      1.000     O          -0.544937           
         O9        1.0000    0.37789   0.56770   0.45108   Biso      1.000     O          -0.54468  
         O10       1.0000    0.05712   0.87817   0.99419   Biso      1.000     O          -0.543502           
         O11       1.0000    0.89667   0.93230   0.04892   Biso      1.000     O          -0.541675           
         O12       1.0000    0.94288   0.00581   0.12183   Biso      1.000     O          -0.5435   
         O13       1.0000    0.10333   0.95108   0.06770   Biso      1.000     O          -0.541676           
         O14       1.0000    0.62211   0.54892   0.43230   Biso      1.000     O          -0.54468  
         O15       1.0000    0.42948   0.62183   0.50581   Biso      1.000     O          -0.544937           
         O16       1.0000    0.57052   0.37817   0.49419   Biso      1.000     O          -0.544938 