
##########################################################################
#               Crystallographic Information Format file
#               Produced by PyCifRW module
#
#  This is a CIF file.  CIF has been adopted by the International
#  Union of Crystallography as the standard for data archiving and
#  transmission.
#
#  For information on this file format, follow the CIF links at
#  http://www.iucr.org
##########################################################################

data_image0

_cell_length_a                          10.137
_cell_length_b                          15.745
_cell_length_c                          15.988
_cell_angle_alpha                       90
_cell_angle_beta                        90
_cell_angle_gamma                       107.76
_symmetry_space_group_name_H-M          'P 1'
_symmetry_int_tables_number             1
loop_
  _symmetry_equiv_pos_as_xyz
         'x, y, z' 
loop_
  _atom_site_label
  _atom_site_occupancy
  _atom_site_fract_x
  _atom_site_fract_y
  _atom_site_fract_z
  _atom_site_thermal_displace_type
  _atom_site_B_iso_or_equiv
  _atom_site_type_symbol
  _atom_site_charge
         C1        1.0000    0.19580   0.70630   0.63870   Biso      1.000     C          0.044095999999999996          
         C2        1.0000    0.92930   0.00120   0.36470   Biso      1.000     C          0.054902  
         C3        1.0000    0.00130   0.94750   0.31680   Biso      1.000     C          0.058971  
         C4        1.0000    0.99760   0.94580   0.23080   Biso      1.000     C          -0.12584  
         C5        1.0000    0.05590   0.89390   0.18230   Biso      1.000     C          -0.201845           
         C6        1.0000    0.13060   0.84520   0.22470   Biso      1.000     C          0.298927  
         C7        1.0000    0.35010   0.63010   0.39370   Biso      1.000     C          -0.21755100000000002          
         C8        1.0000    0.41150   0.57790   0.43660   Biso      1.000     C          -0.124827           
         C9        1.0000    0.57950   0.40030   0.41480   Biso      1.000     C          -0.145531           
         C10       1.0000    0.64540   0.34900   0.46710   Biso      1.000     C          -0.243364           
         C11       1.0000    0.63390   0.34390   0.55220   Biso      1.000     C          0.31645999999999996           
         C12       1.0000    0.55510   0.39180   0.59100   Biso      1.000     C          -0.20875500000000002          
         C13       1.0000    0.48650   0.44090   0.54480   Biso      1.000     C          -0.132935           
         C14       1.0000    0.50600   0.44900   0.45630   Biso      1.000     C          0.064125  
         C15       1.0000    0.43850   0.50290   0.40740   Biso      1.000     C          0.038972  
         C16       1.0000    0.37630   0.47290   0.32750   Biso      1.000     C          -0.125415           
         C17       1.0000    0.31290   0.52240   0.28170   Biso      1.000     C          -0.230508           
         C18       1.0000    0.29870   0.60300   0.31140   Biso      1.000     C          0.349184  
         C19       1.0000    0.00300   0.59110   0.56820   Biso      1.000     C          -0.231154           
         C20       1.0000    0.09870   0.67730   0.57490   Biso      1.000     C          -0.120164           
         C21       1.0000    0.32250   0.85000   0.56240   Biso      1.000     C          -0.146899           
         C22       1.0000    0.42700   0.93250   0.56490   Biso      1.000     C          -0.25172100000000003          
         C23       1.0000    0.51510   0.96620   0.62990   Biso      1.000     C          0.31853000000000004           
         C24       1.0000    0.49130   0.89920   0.69430   Biso      1.000     C          -0.188381           
         C25       1.0000    0.39660   0.82240   0.69760   Biso      1.000     C          -0.124392           
         C26       1.0000    0.30150   0.79230   0.63640   Biso      1.000     C          0.05691   
         C27       1.0000    0.17280   0.65300   0.70580   Biso      1.000     C          -0.10893199999999999          
         C28       1.0000    0.07850   0.57020   0.70930   Biso      1.000     C          -0.268924           
         C29       1.0000    0.91360   0.07780   0.33010   Biso      1.000     C          -0.139767           
         C30       1.0000    0.98770   0.53680   0.63800   Biso      1.000     C          0.35183200000000003           
         C31       1.0000    0.84380   0.12550   0.38180   Biso      1.000     C          -0.218631           
         C32       1.0000    0.81850   0.02570   0.49120   Biso      1.000     C          -0.212617           
         C33       1.0000    0.64990   0.36990   0.89370   Biso      1.000     C          -0.217523           
         C34       1.0000    0.58850   0.42210   0.93660   Biso      1.000     C          -0.124801           
         C35       1.0000    0.42050   0.59970   0.91480   Biso      1.000     C          -0.145555           
         C36       1.0000    0.35460   0.65100   0.96710   Biso      1.000     C          -0.243365           
         C37       1.0000    0.36610   0.65610   0.05220   Biso      1.000     C          0.31648200000000004           
         C38       1.0000    0.44490   0.60820   0.09100   Biso      1.000     C          -0.20873899999999998          
         C39       1.0000    0.51350   0.55910   0.04480   Biso      1.000     C          -0.132927           
         C40       1.0000    0.49400   0.55100   0.95630   Biso      1.000     C          0.064118  
         C41       1.0000    0.56150   0.49710   0.90740   Biso      1.000     C          0.038988  
         C42       1.0000    0.62370   0.52710   0.82750   Biso      1.000     C          -0.125414           
         C43       1.0000    0.68710   0.47760   0.78170   Biso      1.000     C          -0.23051300000000002          
         C44       1.0000    0.70130   0.39700   0.81140   Biso      1.000     C          0.34917800000000004           
         C45       1.0000    0.99700   0.40890   0.06820   Biso      1.000     C          -0.23118400000000003          
         C46       1.0000    0.90130   0.32270   0.07490   Biso      1.000     C          -0.120189           
         C47       1.0000    0.67750   0.15000   0.06240   Biso      1.000     C          -0.146923           
         C48       1.0000    0.57300   0.06750   0.06490   Biso      1.000     C          -0.251729           
         C49       1.0000    0.48490   0.03380   0.12990   Biso      1.000     C          0.31853200000000004           
         C50       1.0000    0.50870   0.10080   0.19430   Biso      1.000     C          -0.188425           
         C51       1.0000    0.60340   0.17760   0.19760   Biso      1.000     C          -0.12441700000000001          
         C52       1.0000    0.69850   0.20770   0.13640   Biso      1.000     C          0.056897  
         C53       1.0000    0.80420   0.29370   0.13870   Biso      1.000     C          0.044101  
         C54       1.0000    0.82720   0.34700   0.20580   Biso      1.000     C          -0.108952           
         C55       1.0000    0.92150   0.42980   0.20930   Biso      1.000     C          -0.268931           
         C56       1.0000    0.01230   0.46320   0.13800   Biso      1.000     C          0.351823  
         C57       1.0000    0.14620   0.84960   0.30920   Biso      1.000     C          -0.22351999999999997          
         C58       1.0000    0.07980   0.89880   0.35260   Biso      1.000     C          -0.122172           
         C59       1.0000    0.88470   0.97610   0.44380   Biso      1.000     C          -0.137787           
         C60       1.0000    0.79860   0.10170   0.45670   Biso      1.000     C          0.36493000000000003           
         C61       1.0000    0.92020   0.10120   0.85260   Biso      1.000     C          -0.12215899999999999          
         C62       1.0000    0.85380   0.15040   0.80920   Biso      1.000     C          -0.223521           
         C63       1.0000    0.18150   0.97430   0.99120   Biso      1.000     C          -0.212608           
         C64       1.0000    0.11530   0.02390   0.94380   Biso      1.000     C          -0.137794           
         C65       1.0000    0.94410   0.10610   0.68230   Biso      1.000     C          -0.20186700000000002          
         C66       1.0000    0.00240   0.05420   0.73080   Biso      1.000     C          -0.125849           
         C67       1.0000    0.99870   0.05250   0.81680   Biso      1.000     C          0.05899   
         C68       1.0000    0.07070   0.99880   0.86470   Biso      1.000     C          0.054884  
         C69       1.0000    0.86940   0.15480   0.72470   Biso      1.000     C          0.29893200000000003           
         C70       1.0000    0.08640   0.92220   0.83010   Biso      1.000     C          -0.139812           
         C71       1.0000    0.15620   0.87450   0.88180   Biso      1.000     C          -0.21866  
         C72       1.0000    0.20140   0.89830   0.95670   Biso      1.000     C          0.364937  
         H1        1.0000    0.26660   0.83210   0.51400   Biso      1.000     H          0.11352899999999999           
         H2        1.0000    0.69960   0.31720   0.44030   Biso      1.000     H          0.123748  
         H3        1.0000    0.54800   0.39100   0.65020   Biso      1.000     H          0.125132  
         H4        1.0000    0.42730   0.46870   0.57210   Biso      1.000     H          0.117603  
         H5        1.0000    0.37950   0.41730   0.30610   Biso      1.000     H          0.10973599999999999           
         H6        1.0000    0.27720   0.50160   0.22800   Biso      1.000     H          0.130153  
         H7        1.0000    0.43860   0.59510   0.49260   Biso      1.000     H          0.101737  
         H8        1.0000    0.95160   0.57140   0.51840   Biso      1.000     H          0.143627  
         H9        1.0000    0.09690   0.71900   0.53230   Biso      1.000     H          0.09778200000000001           
         H10       1.0000    0.58640   0.40050   0.35550   Biso      1.000     H          0.11965   
         H11       1.0000    0.43770   0.96860   0.51630   Biso      1.000     H          0.10533900000000002           
         H12       1.0000    0.79850   0.18070   0.83700   Biso      1.000     H          0.137728  
         H13       1.0000    0.39400   0.78550   0.74500   Biso      1.000     H          0.108392  
         H14       1.0000    0.22620   0.67430   0.75450   Biso      1.000     H          0.10036   
         H15       1.0000    0.07180   0.53440   0.75780   Biso      1.000     H          0.119244  
         H16       1.0000    0.91210   0.10010   0.91190   Biso      1.000     H          0.09921   
         H17       1.0000    0.10110   0.07590   0.96720   Biso      1.000     H          0.112773  
         H18       1.0000    0.21250   0.99240   0.04640   Biso      1.000     H          0.12922899999999998           
         H19       1.0000    0.17010   0.82200   0.85950   Biso      1.000     H          0.123869  
         H20       1.0000    0.05330   0.90220   0.77580   Biso      1.000     H          0.121799  
         H21       1.0000    0.04770   0.01760   0.70310   Biso      1.000     H          0.10513099999999999           
         H22       1.0000    0.95410   0.10870   0.62320   Biso      1.000     H          0.136903  
         H23       1.0000    0.55320   0.91320   0.74040   Biso      1.000     H          0.111945  
         H24       1.0000    0.34150   0.68330   0.41770   Biso      1.000     H          0.131097  
         H25       1.0000    0.94670   0.09780   0.27580   Biso      1.000     H          0.121805  
         H26       1.0000    0.95230   0.98240   0.20310   Biso      1.000     H          0.10511400000000001           
         H27       1.0000    0.65850   0.31670   0.91770   Biso      1.000     H          0.131109  
         H28       1.0000    0.56140   0.40490   0.99260   Biso      1.000     H          0.101753  
         H29       1.0000    0.41360   0.59950   0.85550   Biso      1.000     H          0.119648  
         H30       1.0000    0.30040   0.68280   0.94030   Biso      1.000     H          0.123748  
         H31       1.0000    0.45200   0.60900   0.15020   Biso      1.000     H          0.125123  
         H32       1.0000    0.57270   0.53130   0.07210   Biso      1.000     H          0.117601  
         H33       1.0000    0.62050   0.58270   0.80610   Biso      1.000     H          0.109752  
         H34       1.0000    0.04590   0.89130   0.12320   Biso      1.000     H          0.136884  
         H35       1.0000    0.04840   0.42860   0.01840   Biso      1.000     H          0.14361500000000002           
         H36       1.0000    0.90310   0.28100   0.03230   Biso      1.000     H          0.097763  
         H37       1.0000    0.72280   0.49840   0.72800   Biso      1.000     H          0.130153  
         H38       1.0000    0.56230   0.03140   0.01630   Biso      1.000     H          0.105301  
         H39       1.0000    0.82990   0.17800   0.35950   Biso      1.000     H          0.123878  
         H40       1.0000    0.73340   0.16790   0.01400   Biso      1.000     H          0.11351099999999999           
         H41       1.0000    0.89890   0.92410   0.46720   Biso      1.000     H          0.112792  
         H42       1.0000    0.08790   0.89990   0.41190   Biso      1.000     H          0.099207  
         H43       1.0000    0.78750   0.00760   0.54640   Biso      1.000     H          0.12922899999999998           
         H44       1.0000    0.92820   0.46560   0.25780   Biso      1.000     H          0.119208  
         H45       1.0000    0.77380   0.32570   0.25450   Biso      1.000     H          0.100346  
         H46       1.0000    0.60600   0.21450   0.24500   Biso      1.000     H          0.108372  
         H47       1.0000    0.44680   0.08680   0.24040   Biso      1.000     H          0.111929  
         H48       1.0000    0.20150   0.81930   0.33700   Biso      1.000     H          0.137723  
         O1        1.0000    0.19540   0.79500   0.17490   Biso      1.000     O          -0.743793           
         O2        1.0000    0.24290   0.65640   0.26780   Biso      1.000     O          -0.6030479999999999           
         O3        1.0000    0.74670   0.15580   0.50600   Biso      1.000     O          -0.6302399999999999           
         O4        1.0000    0.10390   0.54080   0.13830   Biso      1.000     O          -0.5870310000000001           
         O5        1.0000    0.38910   0.95500   0.13220   Biso      1.000     O          -0.563344           
         O6        1.0000    0.69390   0.29430   0.59620   Biso      1.000     O          -0.7144010000000001           
         O7        1.0000    0.61090   0.04500   0.63220   Biso      1.000     O          -0.563333           
         O8        1.0000    0.30610   0.70570   0.09620   Biso      1.000     O          -0.714377           
         O9        1.0000    0.25330   0.84420   0.00600   Biso      1.000     O          -0.630263           
         O10       1.0000    0.80460   0.20500   0.67490   Biso      1.000     O          -0.743792           
         O11       1.0000    0.75710   0.34360   0.76780   Biso      1.000     O          -0.603054           
         O12       1.0000    0.89610   0.45920   0.63830   Biso      1.000     O          -0.587028           
         Ti1       1.0000    0.36840   0.84270   0.09892   Biso      1.000     Ti          1.473857  
         Ti2       1.0000    0.13270   0.65800   0.17509   Biso      1.000     Ti          1.476134  
         Ti3       1.0000    0.63160   0.15730   0.59892   Biso      1.000     Ti          1.4740280000000001  
         Ti4       1.0000    0.86730   0.34200   0.67509   Biso      1.000     Ti          1.476194 