
##########################################################################
#               Crystallographic Information Format file
#               Produced by PyCifRW module
#
#  This is a CIF file.  CIF has been adopted by the International
#  Union of Crystallography as the standard for data archiving and
#  transmission.
#
#  For information on this file format, follow the CIF links at
#  http://www.iucr.org
##########################################################################

data_image0

_cell_length_a                          10.137
_cell_length_b                          15.745
_cell_length_c                          15.988
_cell_angle_alpha                       90
_cell_angle_beta                        90
_cell_angle_gamma                       107.76
_symmetry_space_group_name_H-M          'P 1'
_symmetry_int_tables_number             1
loop_
  _symmetry_equiv_pos_as_xyz
         'x, y, z' 
loop_
  _atom_site_label
  _atom_site_occupancy
  _atom_site_fract_x
  _atom_site_fract_y
  _atom_site_fract_z
  _atom_site_thermal_displace_type
  _atom_site_B_iso_or_equiv
  _atom_site_type_symbol
  _atom_site_charge
         C1        1.0000    0.94720   0.95700   0.00120   Biso      1.000     C          0.049637  
         C2        1.0000    0.18390   0.75200   0.77140   Biso      1.000     C          0.046235000000000005          
         C3        1.0000    0.25360   0.69820   0.81980   Biso      1.000     C          0.063713  
         C4        1.0000    0.24200   0.69340   0.90700   Biso      1.000     C          -0.129924           
         C5        1.0000    0.30550   0.64280   0.95440   Biso      1.000     C          -0.20519899999999996          
         C6        1.0000    0.38220   0.59460   0.91380   Biso      1.000     C          0.30625399999999997           
         C7        1.0000    0.74420   0.65400   0.43700   Biso      1.000     C          -0.21156999999999998          
         C8        1.0000    0.64890   0.57260   0.43860   Biso      1.000     C          -0.12170999999999998          
         C9        1.0000    0.55280   0.54300   0.50120   Biso      1.000     C          0.04964   
         C10       1.0000    0.57480   0.59850   0.57170   Biso      1.000     C          -0.126096           
         C11       1.0000    0.67420   0.68120   0.57220   Biso      1.000     C          -0.260952           
         C12       1.0000    0.76370   0.71470   0.50400   Biso      1.000     C          0.338787  
         C13       1.0000    0.89580   0.09930   0.67100   Biso      1.000     C          -0.232488           
         C14       1.0000    0.82960   0.14960   0.71890   Biso      1.000     C          -0.135094           
         C15       1.0000    0.63050   0.22450   0.80820   Biso      1.000     C          -0.13253  
         C16       1.0000    0.56570   0.27400   0.85480   Biso      1.000     C          -0.221266           
         C17       1.0000    0.54860   0.35240   0.82260   Biso      1.000     C          0.356609  
         C18       1.0000    0.59700   0.37780   0.74400   Biso      1.000     C          -0.21840700000000002          
         C19       1.0000    0.66260   0.32780   0.69680   Biso      1.000     C          -0.131626           
         C20       1.0000    0.68390   0.25200   0.72860   Biso      1.000     C          0.046235000000000005          
         C21       1.0000    0.75360   0.19820   0.68020   Biso      1.000     C          0.063713  
         C22       1.0000    0.74200   0.19340   0.59300   Biso      1.000     C          -0.129923           
         C23       1.0000    0.80550   0.14280   0.54560   Biso      1.000     C          -0.20519899999999996          
         C24       1.0000    0.88220   0.09460   0.58620   Biso      1.000     C          0.306271  
         C25       1.0000    0.75580   0.84600   0.93700   Biso      1.000     C          -0.211571           
         C26       1.0000    0.85110   0.92740   0.93860   Biso      1.000     C          -0.121706           
         C27       1.0000    0.92520   0.90150   0.07170   Biso      1.000     C          -0.126095           
         C28       1.0000    0.82580   0.81880   0.07220   Biso      1.000     C          -0.260952           
         C29       1.0000    0.16260   0.82780   0.80320   Biso      1.000     C          -0.131622           
         C30       1.0000    0.73630   0.78530   0.00400   Biso      1.000     C          0.33878800000000003           
         C31       1.0000    0.09700   0.87780   0.75600   Biso      1.000     C          -0.218414           
         C32       1.0000    0.06570   0.77400   0.64520   Biso      1.000     C          -0.22126700000000002          
         C33       1.0000    0.25580   0.34600   0.56300   Biso      1.000     C          -0.211569           
         C34       1.0000    0.35110   0.42740   0.56140   Biso      1.000     C          -0.12170999999999998          
         C35       1.0000    0.44720   0.45700   0.49880   Biso      1.000     C          0.049642  
         C36       1.0000    0.42520   0.40150   0.42830   Biso      1.000     C          -0.126096           
         C37       1.0000    0.32580   0.31880   0.42780   Biso      1.000     C          -0.26095300000000005          
         C38       1.0000    0.23630   0.28530   0.49600   Biso      1.000     C          0.338785  
         C39       1.0000    0.10420   0.90070   0.32900   Biso      1.000     C          -0.232488           
         C40       1.0000    0.17040   0.85040   0.28110   Biso      1.000     C          -0.135094           
         C41       1.0000    0.36950   0.77550   0.19180   Biso      1.000     C          -0.13253  
         C42       1.0000    0.43430   0.72600   0.14520   Biso      1.000     C          -0.221266           
         C43       1.0000    0.45140   0.64760   0.17740   Biso      1.000     C          0.356606  
         C44       1.0000    0.40300   0.62220   0.25600   Biso      1.000     C          -0.21840700000000002          
         C45       1.0000    0.33740   0.67220   0.30320   Biso      1.000     C          -0.131626           
         C46       1.0000    0.31610   0.74800   0.27140   Biso      1.000     C          0.046236  
         C47       1.0000    0.24640   0.80180   0.31980   Biso      1.000     C          0.063713  
         C48       1.0000    0.25800   0.80660   0.40700   Biso      1.000     C          -0.129923           
         C49       1.0000    0.19450   0.85720   0.45440   Biso      1.000     C          -0.2052   
         C50       1.0000    0.11780   0.90540   0.41380   Biso      1.000     C          0.30627   
         C51       1.0000    0.24420   0.15400   0.06300   Biso      1.000     C          -0.21156999999999998          
         C52       1.0000    0.14890   0.07260   0.06140   Biso      1.000     C          -0.12170999999999998          
         C53       1.0000    0.05280   0.04300   0.99880   Biso      1.000     C          0.049642  
         C54       1.0000    0.07480   0.09850   0.92830   Biso      1.000     C          -0.126096           
         C55       1.0000    0.17420   0.18120   0.92780   Biso      1.000     C          -0.26095300000000005          
         C56       1.0000    0.26370   0.21470   0.99600   Biso      1.000     C          0.33878400000000003           
         C57       1.0000    0.39580   0.59930   0.82900   Biso      1.000     C          -0.232471           
         C58       1.0000    0.32960   0.64960   0.78110   Biso      1.000     C          -0.135097           
         C59       1.0000    0.13050   0.72450   0.69180   Biso      1.000     C          -0.13253  
         C60       1.0000    0.04860   0.85240   0.67740   Biso      1.000     C          0.356613  
         C61       1.0000    0.67040   0.35040   0.21890   Biso      1.000     C          -0.13509300000000002          
         C62       1.0000    0.60420   0.40070   0.17100   Biso      1.000     C          -0.232488           
         C63       1.0000    0.93430   0.22600   0.35480   Biso      1.000     C          -0.22126700000000002          
         C64       1.0000    0.86950   0.27550   0.30820   Biso      1.000     C          -0.132529           
         C65       1.0000    0.69450   0.35720   0.04560   Biso      1.000     C          -0.20519899999999996          
         C66       1.0000    0.75800   0.30660   0.09300   Biso      1.000     C          -0.129922           
         C67       1.0000    0.74640   0.30180   0.18020   Biso      1.000     C          0.063713  
         C68       1.0000    0.81610   0.24800   0.22860   Biso      1.000     C          0.046232999999999996          
         C69       1.0000    0.61780   0.40540   0.08620   Biso      1.000     C          0.30627   
         C70       1.0000    0.83740   0.17220   0.19680   Biso      1.000     C          -0.13162100000000002          
         C71       1.0000    0.90300   0.12220   0.24400   Biso      1.000     C          -0.218415           
         C72       1.0000    0.95140   0.14760   0.32260   Biso      1.000     C          0.356614  
         H1        1.0000    0.68980   0.22560   0.56550   Biso      1.000     H          0.110882  
         H2        1.0000    0.68300   0.71710   0.62080   Biso      1.000     H          0.112499  
         H3        1.0000    0.95060   0.06820   0.69840   Biso      1.000     H          0.13078900000000002           
         H4        1.0000    0.83720   0.15020   0.77820   Biso      1.000     H          0.10981700000000001           
         H5        1.0000    0.63920   0.17070   0.83060   Biso      1.000     H          0.111551  
         H6        1.0000    0.53240   0.25460   0.90920   Biso      1.000     H          0.12872999999999998           
         H7        1.0000    0.64860   0.53320   0.39360   Biso      1.000     H          0.102373  
         H8        1.0000    0.58570   0.43060   0.72090   Biso      1.000     H          0.12701600000000002           
         H9        1.0000    0.69260   0.34640   0.64160   Biso      1.000     H          0.11155599999999999           
         H10       1.0000    0.52020   0.57890   0.62020   Biso      1.000     H          0.107655  
         H11       1.0000    0.79700   0.14120   0.48650   Biso      1.000     H          0.131211  
         H12       1.0000    0.54940   0.43180   0.19840   Biso      1.000     H          0.13078900000000002           
         H13       1.0000    0.85140   0.96680   0.89360   Biso      1.000     H          0.102373  
         H14       1.0000    0.97980   0.92110   0.12020   Biso      1.000     H          0.107654  
         H15       1.0000    0.81700   0.78290   0.12080   Biso      1.000     H          0.1125    
         H16       1.0000    0.66280   0.34980   0.27820   Biso      1.000     H          0.10981800000000001           
         H17       1.0000    0.86080   0.32930   0.33060   Biso      1.000     H          0.11155   
         H18       1.0000    0.96760   0.24540   0.40920   Biso      1.000     H          0.12872999999999998           
         H19       1.0000    0.91430   0.06940   0.22090   Biso      1.000     H          0.12701600000000002           
         H20       1.0000    0.80740   0.15360   0.14160   Biso      1.000     H          0.111555  
         H21       1.0000    0.81020   0.27440   0.06550   Biso      1.000     H          0.110882  
         H22       1.0000    0.70300   0.35880   0.98650   Biso      1.000     H          0.131211  
         H23       1.0000    0.69920   0.82910   0.88900   Biso      1.000     H          0.126723  
         H24       1.0000    0.80080   0.67090   0.38900   Biso      1.000     H          0.126723  
         H25       1.0000    0.19260   0.84640   0.85840   Biso      1.000     H          0.111555  
         H26       1.0000    0.18980   0.72560   0.93450   Biso      1.000     H          0.110882  
         H27       1.0000    0.19920   0.32910   0.61100   Biso      1.000     H          0.126723  
         H28       1.0000    0.35140   0.46680   0.60640   Biso      1.000     H          0.102373  
         H29       1.0000    0.47980   0.42110   0.37980   Biso      1.000     H          0.107655  
         H30       1.0000    0.31700   0.28290   0.37920   Biso      1.000     H          0.112499  
         H31       1.0000    0.04940   0.93180   0.30160   Biso      1.000     H          0.13078900000000002           
         H32       1.0000    0.16280   0.84980   0.22180   Biso      1.000     H          0.10981700000000001           
         H33       1.0000    0.36080   0.82930   0.16940   Biso      1.000     H          0.111551  
         H34       1.0000    0.29700   0.64120   0.01350   Biso      1.000     H          0.131211  
         H35       1.0000    0.41430   0.56940   0.27910   Biso      1.000     H          0.12701500000000002           
         H36       1.0000    0.30740   0.65360   0.35840   Biso      1.000     H          0.111555  
         H37       1.0000    0.46760   0.74540   0.09080   Biso      1.000     H          0.12872999999999998           
         H38       1.0000    0.20300   0.85880   0.51350   Biso      1.000     H          0.131211  
         H39       1.0000    0.08570   0.93060   0.77910   Biso      1.000     H          0.12701600000000002           
         H40       1.0000    0.31020   0.77440   0.43450   Biso      1.000     H          0.110881  
         H41       1.0000    0.13920   0.67070   0.66940   Biso      1.000     H          0.11155   
         H42       1.0000    0.33720   0.65020   0.72180   Biso      1.000     H          0.10981800000000001           
         H43       1.0000    0.03240   0.75460   0.59080   Biso      1.000     H          0.12872999999999998           
         H44       1.0000    0.18300   0.21710   0.87920   Biso      1.000     H          0.112499  
         H45       1.0000    0.02020   0.07890   0.87980   Biso      1.000     H          0.107655  
         H46       1.0000    0.14860   0.03320   0.10640   Biso      1.000     H          0.102373  
         H47       1.0000    0.30080   0.17090   0.11100   Biso      1.000     H          0.126723  
         H48       1.0000    0.45060   0.56820   0.80160   Biso      1.000     H          0.13078800000000002           
         O1        1.0000    0.44460   0.54460   0.96060   Biso      1.000     O          -0.729521           
         O2        1.0000    0.49480   0.40610   0.86910   Biso      1.000     O          -0.6160899999999999           
         O3        1.0000    0.99480   0.90610   0.63090   Biso      1.000     O          -0.616088           
         O4        1.0000    0.35740   0.29290   0.99700   Biso      1.000     O          -0.577014           
         O5        1.0000    0.05540   0.95540   0.46060   Biso      1.000     O          -0.729521           
         O6        1.0000    0.85740   0.79290   0.50300   Biso      1.000     O          -0.577015           
         O7        1.0000    0.94460   0.04460   0.53940   Biso      1.000     O          -0.729529           
         O8        1.0000    0.14260   0.20710   0.49700   Biso      1.000     O          -0.577014           
         O9        1.0000    0.00520   0.09390   0.36910   Biso      1.000     O          -0.616089           
         O10       1.0000    0.55540   0.45540   0.03940   Biso      1.000     O          -0.729532           
         O11       1.0000    0.50520   0.59390   0.13090   Biso      1.000     O          -0.616089           
         O12       1.0000    0.64260   0.70710   0.00300   Biso      1.000     O          -0.577017           
         Ti1       1.0000    0.11780   0.09240   0.46192   Biso      1.000     Ti          1.477433  
         Ti2       1.0000    0.38220   0.40760   0.96192   Biso      1.000     Ti          1.477436  
         Ti3       1.0000    0.88220   0.90760   0.53808   Biso      1.000     Ti          1.477435  
         Ti4       1.0000    0.61780   0.59240   0.03808   Biso      1.000     Ti          1.477441 