
##########################################################################
#               Crystallographic Information Format file
#               Produced by PyCifRW module
#
#  This is a CIF file.  CIF has been adopted by the International
#  Union of Crystallography as the standard for data archiving and
#  transmission.
#
#  For information on this file format, follow the CIF links at
#  http://www.iucr.org
##########################################################################

data_image0

_cell_length_a                          9.57
_cell_length_b                          11.6489
_cell_length_c                          11.6489
_cell_angle_alpha                       80.286
_cell_angle_beta                        65.7468
_cell_angle_gamma                       65.7469
_symmetry_space_group_name_H-M          'P 1'
_symmetry_int_tables_number             1
loop_
  _symmetry_equiv_pos_as_xyz
         'x, y, z' 
loop_
  _atom_site_label
  _atom_site_occupancy
  _atom_site_fract_x
  _atom_site_fract_y
  _atom_site_fract_z
  _atom_site_thermal_displace_type
  _atom_site_B_iso_or_equiv
  _atom_site_type_symbol
  _atom_site_charge
         C1        1.0000    0.39260   0.39270   0.16650   Biso      1.000     C          0.063309  
         C2        1.0000    0.44390   0.50860   0.00560   Biso      1.000     C          0.176258  
         C3        1.0000    0.33230   0.37330   0.08450   Biso      1.000     C          0.27526799999999996           
         C4        1.0000    0.23300   0.23660   0.21340   Biso      1.000     C          0.19531600000000002           
         C5        1.0000    0.36460   0.32730   0.28130   Biso      1.000     C          -0.029158           
         C6        1.0000    0.04750   0.99440   0.50860   Biso      1.000     C          0.175075  
         C7        1.0000    0.29440   0.91550   0.37330   Biso      1.000     C          0.276806  
         C8        1.0000    0.97320   0.67270   0.71870   Biso      1.000     C          -0.027385000000000003         
         C9        1.0000    0.53040   0.78660   0.23660   Biso      1.000     C          0.197578  
         C10       1.0000    0.21470   0.83350   0.39270   Biso      1.000     C          0.061887  
         C11       1.0000    0.55050   0.00560   0.49140   Biso      1.000     C          0.177312  
         C12       1.0000    0.58320   0.08450   0.62670   Biso      1.000     C          0.275623  
         C13       1.0000    0.55360   0.21340   0.76340   Biso      1.000     C          0.1949    
         C14       1.0000    0.35410   0.28130   0.67270   Biso      1.000     C          -0.030556           
         C15       1.0000    0.44090   0.16650   0.60730   Biso      1.000     C          0.062611  
         C16       1.0000    0.30810   0.71870   0.32730   Biso      1.000     C          -0.028013           
         C17       1.0000    0.68300   0.76340   0.78660   Biso      1.000     C          0.194795  
         C18       1.0000    0.95180   0.60730   0.83350   Biso      1.000     C          0.06323200000000001           
         C19       1.0000    0.95810   0.49140   0.99440   Biso      1.000     C          0.17547100000000002           
         C20       1.0000    0.79010   0.62670   0.91550   Biso      1.000     C          0.27426100000000003           
         H1        1.0000    0.99760   0.43390   0.05050   Biso      1.000     H          0.07408200000000001           
         H2        1.0000    0.59190   0.82020   0.76920   Biso      1.000     H          0.08121   
         H3        1.0000    0.07810   0.66370   0.65930   Biso      1.000     H          0.09731000000000001           
         H4        1.0000    0.18130   0.17980   0.23080   Biso      1.000     H          0.081059  
         H5        1.0000    0.40110   0.33630   0.34070   Biso      1.000     H          0.097321  
         H6        1.0000    0.95190   0.05050   0.56610   Biso      1.000     H          0.073272  
         H7        1.0000    0.48200   0.56610   0.94950   Biso      1.000     H          0.072622  
         H8        1.0000    0.63890   0.76920   0.17980   Biso      1.000     H          0.080359  
         H9        1.0000    0.26260   0.65930   0.33630   Biso      1.000     H          0.096863  
         H10       1.0000    0.56850   0.94950   0.43390   Biso      1.000     H          0.07255299999999999           
         H11       1.0000    0.58790   0.23080   0.82020   Biso      1.000     H          0.080277  
         H12       1.0000    0.25820   0.34070   0.66370   Biso      1.000     H          0.097978  
         N1        1.0000    0.25250   0.29700   0.10460   Biso      1.000     N          -0.343974           
         N2        1.0000    0.46580   0.69840   0.25120   Biso      1.000     N          -0.22077399999999997          
         N3        1.0000    0.41890   0.11570   0.52230   Biso      1.000     N          -0.270829           
         N4        1.0000    0.65250   0.98390   0.54990   Biso      1.000     N          -0.307243           
         N5        1.0000    0.18630   0.01610   0.45010   Biso      1.000     N          -0.30686399999999997          
         N6        1.0000    0.05690   0.88430   0.47770   Biso      1.000     N          -0.269355           
         N7        1.0000    0.28300   0.25120   0.30160   Biso      1.000     N          -0.220264           
         N8        1.0000    0.45050   0.89540   0.29700   Biso      1.000     N          -0.346087           
         N9        1.0000    0.36360   0.45010   0.98390   Biso      1.000     N          -0.306498           
         N10       1.0000    0.41540   0.30160   0.74880   Biso      1.000     N          -0.21736799999999998          
         N11       1.0000    0.83580   0.74880   0.69840   Biso      1.000     N          -0.22103899999999999          
         N12       1.0000    0.65410   0.70300   0.89540   Biso      1.000     N          -0.343769           
         N13       1.0000    0.79760   0.54990   0.01610   Biso      1.000     N          -0.306669           
         N14       1.0000    0.05880   0.52230   0.88430   Biso      1.000     N          -0.271177           
         N15       1.0000    0.64290   0.10460   0.70300   Biso      1.000     N          -0.34421199999999996          
         N16       1.0000    0.46540   0.47770   0.11570   Biso      1.000     N          -0.270836           
         Zn1       1.0000    0.22179   0.16745   0.47529   Biso      1.000     Zn          0.20938   
         Zn2       1.0000    0.86453   0.83255   0.52471   Biso      1.000     Zn          0.209064  
         Zn3       1.0000    0.61076   0.52471   0.16745   Biso      1.000     Zn          0.21013   
         Zn4       1.0000    0.30292   0.47529   0.83255   Biso      1.000     Zn          0.208889 