
##########################################################################
#               Crystallographic Information Format file
#               Produced by PyCifRW module
#
#  This is a CIF file.  CIF has been adopted by the International
#  Union of Crystallography as the standard for data archiving and
#  transmission.
#
#  For information on this file format, follow the CIF links at
#  http://www.iucr.org
##########################################################################

data_image0

_cell_length_a                          13.356
_cell_length_b                          19.4413
_cell_length_c                          19.4413
_cell_angle_alpha                       102.158
_cell_angle_beta                        93.8474
_cell_angle_gamma                       93.8474
_symmetry_space_group_name_H-M          'P 1'
_symmetry_int_tables_number             1
loop_
  _symmetry_equiv_pos_as_xyz
         'x, y, z' 
loop_
  _atom_site_label
  _atom_site_occupancy
  _atom_site_fract_x
  _atom_site_fract_y
  _atom_site_fract_z
  _atom_site_thermal_displace_type
  _atom_site_B_iso_or_equiv
  _atom_site_type_symbol
  _atom_site_charge
         C1        1.0000    0.83320   0.85180   0.76560   Biso      1.000     C          0.040393  
         C2        1.0000    0.19620   0.09980   0.27340   Biso      1.000     C          -0.107442           
         C3        1.0000    0.19700   0.11590   0.34450   Biso      1.000     C          0.024383  
         C4        1.0000    0.16250   0.17790   0.37790   Biso      1.000     C          -0.107346           
         C5        1.0000    0.13220   0.22430   0.33910   Biso      1.000     C          0.038624  
         C6        1.0000    0.13520   0.21290   0.26650   Biso      1.000     C          -0.000535           
         C7        1.0000    0.99260   0.30930   0.14170   Biso      1.000     C          -0.085496           
         C8        1.0000    0.01960   0.26280   0.18540   Biso      1.000     C          0.034472  
         C9        1.0000    0.11140   0.26720   0.22320   Biso      1.000     C          0.026939  
         C10       1.0000    0.17960   0.32110   0.21450   Biso      1.000     C          0.041902  
         C11       1.0000    0.15560   0.36680   0.17360   Biso      1.000     C          -0.111377           
         C12       1.0000    0.06250   0.36330   0.13810   Biso      1.000     C          -0.006287           
         C13       1.0000    0.04190   0.41480   0.09120   Biso      1.000     C          0.678755  
         C14       1.0000    0.44420   0.16980   0.72200   Biso      1.000     C          -0.092926           
         C15       1.0000    0.37600   0.20790   0.76230   Biso      1.000     C          0.048394  
         C16       1.0000    0.28480   0.22310   0.73070   Biso      1.000     C          -0.004402           
         C17       1.0000    0.26940   0.20130   0.65830   Biso      1.000     C          0.045692  
         C18       1.0000    0.33570   0.16080   0.61860   Biso      1.000     C          -0.12476  
         C19       1.0000    0.16680   0.14820   0.23440   Biso      1.000     C          0.040396  
         C20       1.0000    0.42050   0.14180   0.65060   Biso      1.000     C          0.007074  
         C21       1.0000    0.23740   0.06560   0.38800   Biso      1.000     C          0.600372  
         C22       1.0000    0.07950   0.34940   0.85820   Biso      1.000     C          0.007063  
         C23       1.0000    0.69620   0.27340   0.09980   Biso      1.000     C          -0.107442           
         C24       1.0000    0.69700   0.34450   0.11590   Biso      1.000     C          0.024383  
         C25       1.0000    0.66250   0.37790   0.17790   Biso      1.000     C          -0.107346           
         C26       1.0000    0.63220   0.33910   0.22430   Biso      1.000     C          0.038623  
         C27       1.0000    0.63520   0.26650   0.21290   Biso      1.000     C          -0.000535           
         C28       1.0000    0.49260   0.14170   0.30930   Biso      1.000     C          -0.085496           
         C29       1.0000    0.51960   0.18540   0.26280   Biso      1.000     C          0.034473  
         C30       1.0000    0.61140   0.22320   0.26720   Biso      1.000     C          0.026939  
         C31       1.0000    0.67960   0.21450   0.32110   Biso      1.000     C          0.041902  
         C32       1.0000    0.65560   0.17360   0.36680   Biso      1.000     C          -0.111378           
         C33       1.0000    0.56250   0.13810   0.36330   Biso      1.000     C          -0.006287           
         C34       1.0000    0.54190   0.09120   0.41480   Biso      1.000     C          0.678755  
         C35       1.0000    0.05580   0.27800   0.83020   Biso      1.000     C          -0.092924           
         C36       1.0000    0.12400   0.23770   0.79210   Biso      1.000     C          0.048393  
         C37       1.0000    0.21520   0.26930   0.77690   Biso      1.000     C          -0.004402           
         C38       1.0000    0.23060   0.34170   0.79870   Biso      1.000     C          0.045691  
         C39       1.0000    0.16430   0.38140   0.83920   Biso      1.000     C          -0.12475  
         C40       1.0000    0.00460   0.39150   0.90110   Biso      1.000     C          0.657945  
         C41       1.0000    0.49540   0.09890   0.60850   Biso      1.000     C          0.657945  
         C42       1.0000    0.26260   0.61200   0.93440   Biso      1.000     C          0.600372  
         C43       1.0000    0.33320   0.76560   0.85180   Biso      1.000     C          0.040395  
         C44       1.0000    0.82040   0.67890   0.78550   Biso      1.000     C          0.041901  
         C45       1.0000    0.88860   0.73280   0.77680   Biso      1.000     C          0.026936  
         C46       1.0000    0.98040   0.73720   0.81460   Biso      1.000     C          0.034476  
         C47       1.0000    0.00740   0.69070   0.85830   Biso      1.000     C          -0.085497           
         C48       1.0000    0.86480   0.78710   0.73350   Biso      1.000     C          -0.000535           
         C49       1.0000    0.86780   0.77570   0.66090   Biso      1.000     C          0.038615  
         C50       1.0000    0.83750   0.82210   0.62210   Biso      1.000     C          -0.107341           
         C51       1.0000    0.80300   0.88410   0.65550   Biso      1.000     C          0.024376  
         C52       1.0000    0.80380   0.90020   0.72660   Biso      1.000     C          -0.107427           
         C53       1.0000    0.76260   0.93440   0.61200   Biso      1.000     C          0.600373  
         C54       1.0000    0.99540   0.60850   0.09890   Biso      1.000     C          0.657946  
         C55       1.0000    0.92050   0.65060   0.14180   Biso      1.000     C          0.007063  
         C56       1.0000    0.83570   0.61860   0.16080   Biso      1.000     C          -0.124751           
         C57       1.0000    0.76940   0.65830   0.20130   Biso      1.000     C          0.045692  
         C58       1.0000    0.78480   0.73070   0.22310   Biso      1.000     C          -0.004402           
         C59       1.0000    0.87600   0.76230   0.20790   Biso      1.000     C          0.048394  
         C60       1.0000    0.94420   0.72200   0.16980   Biso      1.000     C          -0.092924           
         C61       1.0000    0.84440   0.63320   0.82640   Biso      1.000     C          -0.111377           
         C62       1.0000    0.93750   0.63670   0.86190   Biso      1.000     C          -0.006287           
         C63       1.0000    0.95810   0.58520   0.90880   Biso      1.000     C          0.678755  
         C64       1.0000    0.55580   0.83020   0.27800   Biso      1.000     C          -0.092925           
         C65       1.0000    0.30380   0.72660   0.90020   Biso      1.000     C          -0.107441           
         C66       1.0000    0.30300   0.65550   0.88410   Biso      1.000     C          0.024383  
         C67       1.0000    0.33750   0.62210   0.82210   Biso      1.000     C          -0.107346           
         C68       1.0000    0.36780   0.66090   0.77570   Biso      1.000     C          0.038623  
         C69       1.0000    0.36480   0.73350   0.78710   Biso      1.000     C          -0.000535           
         C70       1.0000    0.50740   0.85830   0.69070   Biso      1.000     C          -0.085496           
         C71       1.0000    0.48040   0.81460   0.73720   Biso      1.000     C          0.034472  
         C72       1.0000    0.38860   0.77680   0.73280   Biso      1.000     C          0.026939  
         C73       1.0000    0.66680   0.23440   0.14820   Biso      1.000     C          0.040396  
         C74       1.0000    0.32040   0.78550   0.67890   Biso      1.000     C          0.041902  
         C75       1.0000    0.43750   0.86190   0.63670   Biso      1.000     C          -0.006292           
         C76       1.0000    0.45810   0.90880   0.58520   Biso      1.000     C          0.678755  
         C77       1.0000    0.50460   0.90110   0.39150   Biso      1.000     C          0.657945  
         C78       1.0000    0.57950   0.85820   0.34940   Biso      1.000     C          0.007065  
         C79       1.0000    0.66430   0.83920   0.38140   Biso      1.000     C          -0.124751           
         C80       1.0000    0.73060   0.79870   0.34170   Biso      1.000     C          0.045692  
         C81       1.0000    0.71520   0.77690   0.26930   Biso      1.000     C          -0.004402           
         C82       1.0000    0.62400   0.79210   0.23770   Biso      1.000     C          0.048393  
         C83       1.0000    0.34440   0.82640   0.63320   Biso      1.000     C          -0.111373           
         C84       1.0000    0.73740   0.38800   0.06560   Biso      1.000     C          0.600372  
         Gd1       1.0000    0.35247   0.98479   0.46126   Biso      1.000     Gd          2.043729  
         Gd2       1.0000    0.14753   0.53874   0.01521   Biso      1.000     Gd          2.043729  
         Gd3       1.0000    0.64753   0.01521   0.53874   Biso      1.000     Gd          2.043729  
         Gd4       1.0000    0.85247   0.46126   0.98479   Biso      1.000     Gd          2.043729  
         H1        1.0000    0.82230   0.56980   0.14660   Biso      1.000     H          0.141975  
         H2        1.0000    0.29590   0.83070   0.59810   Biso      1.000     H          0.13495   
         H3        1.0000    0.57010   0.88360   0.69640   Biso      1.000     H          0.144516  
         H4        1.0000    0.34020   0.57340   0.81180   Biso      1.000     H          0.149654  
         H5        1.0000    0.28470   0.74950   0.94370   Biso      1.000     H          0.152896  
         H6        1.0000    0.32230   0.14660   0.56980   Biso      1.000     H          0.141976  
         H7        1.0000    0.50640   0.16330   0.74310   Biso      1.000     H          0.15522   
         H8        1.0000    0.20410   0.40190   0.16930   Biso      1.000     H          0.134951  
         H9        1.0000    0.92990   0.30360   0.11640   Biso      1.000     H          0.144516  
         H10       1.0000    0.15980   0.18820   0.42660   Biso      1.000     H          0.149654  
         H11       1.0000    0.00640   0.74310   0.16330   Biso      1.000     H          0.15522   
         H12       1.0000    0.17770   0.43020   0.85340   Biso      1.000     H          0.141975  
         H13       1.0000    0.78470   0.94370   0.74950   Biso      1.000     H          0.152896  
         H14       1.0000    0.21530   0.05630   0.25050   Biso      1.000     H          0.152896  
         H15       1.0000    0.07010   0.69640   0.88360   Biso      1.000     H          0.144516  
         H16       1.0000    0.79590   0.59810   0.83070   Biso      1.000     H          0.134951  
         H17       1.0000    0.49360   0.83670   0.25690   Biso      1.000     H          0.15522   
         H18       1.0000    0.67770   0.85340   0.43020   Biso      1.000     H          0.141975  
         H19       1.0000    0.84020   0.81180   0.57340   Biso      1.000     H          0.149654  
         H20       1.0000    0.65980   0.42660   0.18820   Biso      1.000     H          0.149654  
         H21       1.0000    0.42990   0.11640   0.30360   Biso      1.000     H          0.144516  
         H22       1.0000    0.70410   0.16930   0.40190   Biso      1.000     H          0.13495   
         H23       1.0000    0.99360   0.25690   0.83670   Biso      1.000     H          0.15522   
         H24       1.0000    0.71530   0.25050   0.05630   Biso      1.000     H          0.152897  
         N1        1.0000    0.44270   0.18550   0.20410   Biso      1.000     N          0.530641  
         N2        1.0000    0.89970   0.83690   0.22890   Biso      1.000     N          0.550954  
         N3        1.0000    0.68370   0.62260   0.21980   Biso      1.000     N          0.570181  
         N4        1.0000    0.82840   0.87040   0.84140   Biso      1.000     N          0.51908   
         N5        1.0000    0.90710   0.71000   0.62280   Biso      1.000     N          0.555259  
         N6        1.0000    0.05730   0.79590   0.81450   Biso      1.000     N          0.530641  
         N7        1.0000    0.72050   0.67190   0.75210   Biso      1.000     N          0.581289  
         N8        1.0000    0.60030   0.77110   0.16310   Biso      1.000     N          0.550954  
         N9        1.0000    0.81630   0.78020   0.37740   Biso      1.000     N          0.57018   
         N10       1.0000    0.59290   0.37720   0.29000   Biso      1.000     N          0.555258  
         N11       1.0000    0.77950   0.24790   0.32810   Biso      1.000     N          0.581289  
         N12       1.0000    0.67160   0.15860   0.12960   Biso      1.000     N          0.519079  
         N13       1.0000    0.31630   0.37740   0.78020   Biso      1.000     N          0.570181  
         N14       1.0000    0.10030   0.16310   0.77110   Biso      1.000     N          0.550954  
         N15       1.0000    0.22050   0.75210   0.67190   Biso      1.000     N          0.581289  
         N16       1.0000    0.55730   0.81450   0.79590   Biso      1.000     N          0.530641  
         N17       1.0000    0.40710   0.62280   0.71000   Biso      1.000     N          0.555258  
         N18       1.0000    0.18370   0.21980   0.62260   Biso      1.000     N          0.570181  
         N19       1.0000    0.32840   0.84140   0.87040   Biso      1.000     N          0.519079  
         N20       1.0000    0.27950   0.32810   0.24790   Biso      1.000     N          0.581289  
         N21       1.0000    0.94270   0.20410   0.18550   Biso      1.000     N          0.530641  
         N22       1.0000    0.09290   0.29000   0.37720   Biso      1.000     N          0.555258  
         N23       1.0000    0.17160   0.12960   0.15860   Biso      1.000     N          0.519079  
         N24       1.0000    0.39970   0.22890   0.83690   Biso      1.000     N          0.550954  
         O1        1.0000    0.68550   0.12560   0.17580   Biso      1.000     O          -0.326475           
         O2        1.0000    0.89000   0.76380   0.35100   Biso      1.000     O          -0.341178           
         O3        1.0000    0.41780   0.89750   0.36750   Biso      1.000     O          -0.55972  
         O4        1.0000    0.54030   0.94030   0.44910   Biso      1.000     O          -0.761689           
         O5        1.0000    0.66830   0.12980   0.06580   Biso      1.000     O          -0.30639  
         O6        1.0000    0.57960   0.43710   0.29310   Biso      1.000     O          -0.311225           
         O7        1.0000    0.75120   0.35820   0.00440   Biso      1.000     O          -0.618064           
         O8        1.0000    0.44460   0.22540   0.16940   Biso      1.000     O          -0.245674           
         O9        1.0000    0.38080   0.12940   0.18580   Biso      1.000     O          -0.390575           
         O10       1.0000    0.80380   0.28890   0.29370   Biso      1.000     O          -0.346467           
         O11       1.0000    0.84290   0.23200   0.36620   Biso      1.000     O          -0.341729           
         O12       1.0000    0.84100   0.80090   0.43910   Biso      1.000     O          -0.336823           
         O13       1.0000    0.76120   0.45250   0.09030   Biso      1.000     O          -0.656131           
         O14       1.0000    0.45550   0.05680   0.40240   Biso      1.000     O          -0.634072           
         O15       1.0000    0.56240   0.34450   0.33110   Biso      1.000     O          -0.340264           
         O16       1.0000    0.66180   0.76070   0.12210   Biso      1.000     O          -0.306461           
         O17       1.0000    0.65710   0.63380   0.76800   Biso      1.000     O          -0.341729           
         O18       1.0000    0.89160   0.53890   0.91030   Biso      1.000     O          -0.676064           
         O19       1.0000    0.60840   0.08970   0.46110   Biso      1.000     O          -0.676064           
         O20       1.0000    0.61000   0.64900   0.23620   Biso      1.000     O          -0.341178           
         O21       1.0000    0.08220   0.63250   0.10250   Biso      1.000     O          -0.55972  
         O22       1.0000    0.95970   0.55090   0.05970   Biso      1.000     O          -0.761689           
         O23       1.0000    0.83170   0.93420   0.87020   Biso      1.000     O          -0.30639  
         O24       1.0000    0.81450   0.82420   0.87440   Biso      1.000     O          -0.326475           
         O25       1.0000    0.92040   0.70690   0.56290   Biso      1.000     O          -0.311225           
         O26       1.0000    0.93760   0.66890   0.65550   Biso      1.000     O          -0.340264           
         O27       1.0000    0.05540   0.83060   0.77460   Biso      1.000     O          -0.245674           
         O28       1.0000    0.11920   0.81420   0.87060   Biso      1.000     O          -0.390575           
         O29       1.0000    0.69620   0.70630   0.71110   Biso      1.000     O          -0.346467           
         O30       1.0000    0.65900   0.56090   0.19910   Biso      1.000     O          -0.336823           
         O31       1.0000    0.74880   0.99560   0.64180   Biso      1.000     O          -0.618064           
         O32       1.0000    0.73880   0.90970   0.54750   Biso      1.000     O          -0.656132           
         O33       1.0000    0.04450   0.59760   0.94320   Biso      1.000     O          -0.634072           
         O34       1.0000    0.51010   0.76060   0.14360   Biso      1.000     O          -0.33572  
         O35       1.0000    0.01010   0.14360   0.76060   Biso      1.000     O          -0.33572  
         O36       1.0000    0.31450   0.87440   0.82420   Biso      1.000     O          -0.326475           
         O37       1.0000    0.34100   0.43910   0.80090   Biso      1.000     O          -0.336823           
         O38       1.0000    0.58220   0.10250   0.63250   Biso      1.000     O          -0.55972  
         O39       1.0000    0.45970   0.05970   0.55090   Biso      1.000     O          -0.761689           
         O40       1.0000    0.33170   0.87020   0.93420   Biso      1.000     O          -0.30639  
         O41       1.0000    0.42040   0.56290   0.70690   Biso      1.000     O          -0.311225           
         O42       1.0000    0.43760   0.65550   0.66890   Biso      1.000     O          -0.340264           
         O43       1.0000    0.55540   0.77460   0.83060   Biso      1.000     O          -0.245674           
         O44       1.0000    0.11000   0.23620   0.64900   Biso      1.000     O          -0.341178           
         O45       1.0000    0.61920   0.87060   0.81420   Biso      1.000     O          -0.390575           
         O46       1.0000    0.15710   0.76800   0.63380   Biso      1.000     O          -0.341729           
         O47       1.0000    0.24880   0.64180   0.99560   Biso      1.000     O          -0.618064           
         O48       1.0000    0.23880   0.54750   0.90970   Biso      1.000     O          -0.656131           
         O49       1.0000    0.54450   0.94320   0.59760   Biso      1.000     O          -0.634072           
         O50       1.0000    0.39160   0.91030   0.53890   Biso      1.000     O          -0.676064           
         O51       1.0000    0.83820   0.87790   0.23930   Biso      1.000     O          -0.306461           
         O52       1.0000    0.19620   0.71110   0.70630   Biso      1.000     O          -0.346467           
         O53       1.0000    0.15900   0.19910   0.56090   Biso      1.000     O          -0.336823           
         O54       1.0000    0.33820   0.23930   0.87790   Biso      1.000     O          -0.306461           
         O55       1.0000    0.48990   0.23940   0.85640   Biso      1.000     O          -0.33572  
         O56       1.0000    0.39000   0.35100   0.76380   Biso      1.000     O          -0.341178           
         O57       1.0000    0.91780   0.36750   0.89750   Biso      1.000     O          -0.55972  
         O58       1.0000    0.04030   0.44910   0.94030   Biso      1.000     O          -0.761689           
         O59       1.0000    0.16830   0.06580   0.12980   Biso      1.000     O          -0.30639  
         O60       1.0000    0.18550   0.17580   0.12560   Biso      1.000     O          -0.326475           
         O61       1.0000    0.07960   0.29310   0.43710   Biso      1.000     O          -0.311225           
         O62       1.0000    0.06240   0.33110   0.34450   Biso      1.000     O          -0.340264           
         O63       1.0000    0.94460   0.16940   0.22540   Biso      1.000     O          -0.245674           
         O64       1.0000    0.88080   0.18580   0.12940   Biso      1.000     O          -0.390575           
         O65       1.0000    0.30380   0.29370   0.28890   Biso      1.000     O          -0.346467           
         O66       1.0000    0.34290   0.36620   0.23200   Biso      1.000     O          -0.341729           
         O67       1.0000    0.25120   0.00440   0.35820   Biso      1.000     O          -0.618064           
         O68       1.0000    0.26120   0.09030   0.45250   Biso      1.000     O          -0.656131           
         O69       1.0000    0.95550   0.40240   0.05680   Biso      1.000     O          -0.634072           
         O70       1.0000    0.10840   0.46110   0.08970   Biso      1.000     O          -0.676064           
         O71       1.0000    0.16180   0.12210   0.76070   Biso      1.000     O          -0.306461           
         O72       1.0000    0.98990   0.85640   0.23940   Biso      1.000     O          -0.33572 