
##########################################################################
#               Crystallographic Information Format file
#               Produced by PyCifRW module
#
#  This is a CIF file.  CIF has been adopted by the International
#  Union of Crystallography as the standard for data archiving and
#  transmission.
#
#  For information on this file format, follow the CIF links at
#  http://www.iucr.org
##########################################################################

data_image0

_cell_length_a                          13.362
_cell_length_b                          19.4868
_cell_length_c                          19.4868
_cell_angle_alpha                       101.901
_cell_angle_beta                        93.0394
_cell_angle_gamma                       93.0394
_symmetry_space_group_name_H-M          'P 1'
_symmetry_int_tables_number             1
loop_
  _symmetry_equiv_pos_as_xyz
         'x, y, z' 
loop_
  _atom_site_label
  _atom_site_occupancy
  _atom_site_fract_x
  _atom_site_fract_y
  _atom_site_fract_z
  _atom_site_thermal_displace_type
  _atom_site_B_iso_or_equiv
  _atom_site_type_symbol
  _atom_site_charge
         C1        1.0000    0.87520   0.27580   0.16300   Biso      1.000     C          0.043259  
         C2        1.0000    0.16040   0.67890   0.87830   Biso      1.000     C          -0.106645           
         C3        1.0000    0.19600   0.61630   0.84690   Biso      1.000     C          0.017507  
         C4        1.0000    0.19510   0.59970   0.77470   Biso      1.000     C          -0.108694           
         C5        1.0000    0.16680   0.64840   0.73620   Biso      1.000     C          0.037794  
         C6        1.0000    0.13250   0.71230   0.76570   Biso      1.000     C          0.000221  
         C7        1.0000    0.15360   0.86550   0.67130   Biso      1.000     C          -0.117982           
         C8        1.0000    0.17830   0.81860   0.71200   Biso      1.000     C          0.039261  
         C9        1.0000    0.10670   0.76570   0.72330   Biso      1.000     C          0.024881  
         C10       1.0000    0.01630   0.76230   0.68290   Biso      1.000     C          0.023069  
         C11       1.0000    0.99260   0.80800   0.63960   Biso      1.000     C          -0.091753           
         C12       1.0000    0.06190   0.86080   0.63540   Biso      1.000     C          -0.002574           
         C13       1.0000    0.04000   0.91230   0.58750   Biso      1.000     C          0.677661  
         C14       1.0000    0.55500   0.32940   0.78060   Biso      1.000     C          -0.102194           
         C15       1.0000    0.62300   0.29180   0.74180   Biso      1.000     C          0.056489  
         C16       1.0000    0.71300   0.27480   0.77060   Biso      1.000     C          0.000534  
         C17       1.0000    0.72760   0.29420   0.84340   Biso      1.000     C          0.021269  
         C18       1.0000    0.66060   0.33550   0.88370   Biso      1.000     C          -0.137632           
         C19       1.0000    0.12480   0.72420   0.83700   Biso      1.000     C          0.043259  
         C20       1.0000    0.57650   0.35540   0.85180   Biso      1.000     C          0.014669  
         C21       1.0000    0.23740   0.56670   0.89010   Biso      1.000     C          0.605427  
         C22       1.0000    0.92350   0.14820   0.64460   Biso      1.000     C          0.014657  
         C23       1.0000    0.66040   0.87830   0.67890   Biso      1.000     C          -0.106645           
         C24       1.0000    0.69600   0.84690   0.61630   Biso      1.000     C          0.017507  
         C25       1.0000    0.69510   0.77470   0.59970   Biso      1.000     C          -0.108694           
         C26       1.0000    0.66680   0.73620   0.64840   Biso      1.000     C          0.037794  
         C27       1.0000    0.63250   0.76570   0.71230   Biso      1.000     C          0.000221  
         C28       1.0000    0.65360   0.67130   0.86550   Biso      1.000     C          -0.117982           
         C29       1.0000    0.67830   0.71200   0.81860   Biso      1.000     C          0.039261  
         C30       1.0000    0.60670   0.72330   0.76570   Biso      1.000     C          0.024881  
         C31       1.0000    0.51630   0.68290   0.76230   Biso      1.000     C          0.023069  
         C32       1.0000    0.49260   0.63960   0.80800   Biso      1.000     C          -0.091753           
         C33       1.0000    0.56190   0.63540   0.86080   Biso      1.000     C          -0.002574           
         C34       1.0000    0.54000   0.58750   0.91230   Biso      1.000     C          0.677661  
         C35       1.0000    0.94500   0.21940   0.67060   Biso      1.000     C          -0.10219  
         C36       1.0000    0.87700   0.25820   0.70820   Biso      1.000     C          0.056488  
         C37       1.0000    0.78700   0.22940   0.72520   Biso      1.000     C          0.000535  
         C38       1.0000    0.77240   0.15660   0.70580   Biso      1.000     C          0.021267  
         C39       1.0000    0.83940   0.11630   0.66450   Biso      1.000     C          -0.137622           
         C40       1.0000    0.99400   0.10460   0.59960   Biso      1.000     C          0.640328  
         C41       1.0000    0.50600   0.40040   0.89540   Biso      1.000     C          0.640328  
         C42       1.0000    0.26260   0.10990   0.43330   Biso      1.000     C          0.605426  
         C43       1.0000    0.37520   0.16300   0.27580   Biso      1.000     C          0.043259  
         C44       1.0000    0.98370   0.23770   0.31710   Biso      1.000     C          0.023069  
         C45       1.0000    0.89330   0.23430   0.27670   Biso      1.000     C          0.024881  
         C46       1.0000    0.82170   0.18140   0.28800   Biso      1.000     C          0.039258  
         C47       1.0000    0.84640   0.13450   0.32870   Biso      1.000     C          -0.117979           
         C48       1.0000    0.86750   0.28770   0.23430   Biso      1.000     C          0.000216  
         C49       1.0000    0.83320   0.35160   0.26380   Biso      1.000     C          0.037797  
         C50       1.0000    0.80490   0.40030   0.22530   Biso      1.000     C          -0.108692           
         C51       1.0000    0.80400   0.38370   0.15310   Biso      1.000     C          0.017501  
         C52       1.0000    0.83960   0.32110   0.12170   Biso      1.000     C          -0.106638           
         C53       1.0000    0.76260   0.43330   0.10990   Biso      1.000     C          0.605427  
         C54       1.0000    0.00600   0.89540   0.40040   Biso      1.000     C          0.640328  
         C55       1.0000    0.07650   0.85180   0.35540   Biso      1.000     C          0.014657  
         C56       1.0000    0.16060   0.88370   0.33550   Biso      1.000     C          -0.137622           
         C57       1.0000    0.22760   0.84340   0.29420   Biso      1.000     C          0.021267  
         C58       1.0000    0.21300   0.77060   0.27480   Biso      1.000     C          0.000533  
         C59       1.0000    0.12300   0.74180   0.29180   Biso      1.000     C          0.056484  
         C60       1.0000    0.05500   0.78060   0.32940   Biso      1.000     C          -0.102183           
         C61       1.0000    0.00740   0.19200   0.36040   Biso      1.000     C          -0.091753           
         C62       1.0000    0.93810   0.13920   0.36460   Biso      1.000     C          -0.002574           
         C63       1.0000    0.96000   0.08770   0.41250   Biso      1.000     C          0.677661  
         C64       1.0000    0.44500   0.67060   0.21940   Biso      1.000     C          -0.102193           
         C65       1.0000    0.33960   0.12170   0.32110   Biso      1.000     C          -0.106645           
         C66       1.0000    0.30400   0.15310   0.38370   Biso      1.000     C          0.017507  
         C67       1.0000    0.30490   0.22530   0.40030   Biso      1.000     C          -0.108694           
         C68       1.0000    0.33320   0.26380   0.35160   Biso      1.000     C          0.037794  
         C69       1.0000    0.36750   0.23430   0.28770   Biso      1.000     C          0.000221  
         C70       1.0000    0.34640   0.32870   0.13450   Biso      1.000     C          -0.117982           
         C71       1.0000    0.32170   0.28800   0.18140   Biso      1.000     C          0.039261  
         C72       1.0000    0.39330   0.27670   0.23430   Biso      1.000     C          0.024881  
         C73       1.0000    0.62480   0.83700   0.72420   Biso      1.000     C          0.043259  
         C74       1.0000    0.48370   0.31710   0.23770   Biso      1.000     C          0.023069  
         C75       1.0000    0.43810   0.36460   0.13920   Biso      1.000     C          -0.002579           
         C76       1.0000    0.46000   0.41250   0.08770   Biso      1.000     C          0.677662  
         C77       1.0000    0.49400   0.59960   0.10460   Biso      1.000     C          0.640328  
         C78       1.0000    0.42350   0.64460   0.14820   Biso      1.000     C          0.01466   
         C79       1.0000    0.33940   0.66450   0.11630   Biso      1.000     C          -0.137622           
         C80       1.0000    0.27240   0.70580   0.15660   Biso      1.000     C          0.021268  
         C81       1.0000    0.28700   0.72520   0.22940   Biso      1.000     C          0.000532  
         C82       1.0000    0.37700   0.70820   0.25820   Biso      1.000     C          0.056491  
         C83       1.0000    0.50740   0.36040   0.19200   Biso      1.000     C          -0.091747           
         C84       1.0000    0.73740   0.89010   0.56670   Biso      1.000     C          0.605427  
         Gd1       1.0000    0.35252   0.48746   0.96326   Biso      1.000     Gd          2.03372   
         Gd2       1.0000    0.14748   0.03674   0.51254   Biso      1.000     Gd          2.03372   
         Gd3       1.0000    0.64748   0.51254   0.03674   Biso      1.000     Gd          2.03372   
         Gd4       1.0000    0.85252   0.96326   0.48746   Biso      1.000     Gd          2.03372   
         H1        1.0000    0.17330   0.93220   0.34940   Biso      1.000     H          0.142174  
         H2        1.0000    0.56900   0.38600   0.19700   Biso      1.000     H          0.143088  
         H3        1.0000    0.29950   0.33200   0.09860   Biso      1.000     H          0.138319  
         H4        1.0000    0.28650   0.24820   0.44420   Biso      1.000     H          0.152544  
         H5        1.0000    0.34010   0.07300   0.30880   Biso      1.000     H          0.146682  
         H6        1.0000    0.67330   0.34940   0.93220   Biso      1.000     H          0.142174  
         H7        1.0000    0.49380   0.33740   0.75940   Biso      1.000     H          0.156305  
         H8        1.0000    0.93100   0.80300   0.61400   Biso      1.000     H          0.143088  
         H9        1.0000    0.20050   0.90140   0.66800   Biso      1.000     H          0.138319  
         H10       1.0000    0.21350   0.55580   0.75180   Biso      1.000     H          0.152544  
         H11       1.0000    0.99380   0.75940   0.33740   Biso      1.000     H          0.156304  
         H12       1.0000    0.82670   0.06780   0.65060   Biso      1.000     H          0.142174  
         H13       1.0000    0.84010   0.30880   0.07300   Biso      1.000     H          0.146682  
         H14       1.0000    0.15990   0.69120   0.92700   Biso      1.000     H          0.146682  
         H15       1.0000    0.79950   0.09860   0.33200   Biso      1.000     H          0.138318  
         H16       1.0000    0.06900   0.19700   0.38600   Biso      1.000     H          0.143088  
         H17       1.0000    0.50620   0.66260   0.24060   Biso      1.000     H          0.156305  
         H18       1.0000    0.32670   0.65060   0.06780   Biso      1.000     H          0.142174  
         H19       1.0000    0.78650   0.44420   0.24820   Biso      1.000     H          0.152544  
         H20       1.0000    0.71350   0.75180   0.55580   Biso      1.000     H          0.152544  
         H21       1.0000    0.70050   0.66800   0.90140   Biso      1.000     H          0.138319  
         H22       1.0000    0.43100   0.61400   0.80300   Biso      1.000     H          0.143088  
         H23       1.0000    0.00620   0.24060   0.66260   Biso      1.000     H          0.156305  
         H24       1.0000    0.65990   0.92700   0.69120   Biso      1.000     H          0.146682  
         N1        1.0000    0.77700   0.74720   0.82660   Biso      1.000     N          0.565986  
         N2        1.0000    0.10200   0.66280   0.27220   Biso      1.000     N          0.539862  
         N3        1.0000    0.31690   0.87840   0.27420   Biso      1.000     N          0.597751  
         N4        1.0000    0.91470   0.21180   0.12720   Biso      1.000     N          0.546787  
         N5        1.0000    0.82930   0.37550   0.34290   Biso      1.000     N          0.52058   
         N6        1.0000    0.72300   0.17340   0.25280   Biso      1.000     N          0.565986  
         N7        1.0000    0.05940   0.29590   0.31630   Biso      1.000     N          0.592972  
         N8        1.0000    0.39800   0.72780   0.33720   Biso      1.000     N          0.539862  
         N9        1.0000    0.18310   0.72580   0.12160   Biso      1.000     N          0.597751  
         N10       1.0000    0.67070   0.65710   0.62450   Biso      1.000     N          0.52058   
         N11       1.0000    0.44060   0.68370   0.70410   Biso      1.000     N          0.592972  
         N12       1.0000    0.58530   0.87280   0.78820   Biso      1.000     N          0.546787  
         N13       1.0000    0.68310   0.12160   0.72580   Biso      1.000     N          0.597751  
         N14       1.0000    0.89800   0.33720   0.72780   Biso      1.000     N          0.539862  
         N15       1.0000    0.55940   0.31630   0.29590   Biso      1.000     N          0.592972  
         N16       1.0000    0.22300   0.25280   0.17340   Biso      1.000     N          0.565986  
         N17       1.0000    0.32930   0.34290   0.37550   Biso      1.000     N          0.52058   
         N18       1.0000    0.81690   0.27420   0.87840   Biso      1.000     N          0.597751  
         N19       1.0000    0.41470   0.12720   0.21180   Biso      1.000     N          0.546787  
         N20       1.0000    0.94060   0.70410   0.68370   Biso      1.000     N          0.592972  
         N21       1.0000    0.27700   0.82660   0.74720   Biso      1.000     N          0.565986  
         N22       1.0000    0.17070   0.62450   0.65710   Biso      1.000     N          0.52058   
         N23       1.0000    0.08530   0.78820   0.87280   Biso      1.000     N          0.546787  
         N24       1.0000    0.60200   0.27220   0.66280   Biso      1.000     N          0.539862  
         O1        1.0000    0.54800   0.84260   0.82860   Biso      1.000     O          -0.327101           
         O2        1.0000    0.18200   0.72540   0.06300   Biso      1.000     O          -0.310353           
         O3        1.0000    0.46120   0.56070   0.04790   Biso      1.000     O          -0.735758           
         O4        1.0000    0.58410   0.60090   0.12990   Biso      1.000     O          -0.588423           
         O5        1.0000    0.57500   0.93570   0.79530   Biso      1.000     O          -0.34411  
         O6        1.0000    0.66500   0.63310   0.56090   Biso      1.000     O          -0.297098           
         O7        1.0000    0.76390   0.95210   0.59290   Biso      1.000     O          -0.651727           
         O8        1.0000    0.79700   0.79110   0.79290   Biso      1.000     O          -0.348307           
         O9        1.0000    0.84130   0.72630   0.85950   Biso      1.000     O          -0.321064           
         O10       1.0000    0.44780   0.71480   0.66340   Biso      1.000     O          -0.284696           
         O11       1.0000    0.38100   0.63430   0.68970   Biso      1.000     O          -0.389864           
         O12       1.0000    0.10800   0.72820   0.14780   Biso      1.000     O          -0.349264           
         O13       1.0000    0.74920   0.86080   0.50580   Biso      1.000     O          -0.614959           
         O14       1.0000    0.45460   0.55600   0.90180   Biso      1.000     O          -0.616221           
         O15       1.0000    0.68200   0.62430   0.67010   Biso      1.000     O          -0.320334           
         O16       1.0000    0.33000   0.73840   0.37640   Biso      1.000     O          -0.335282           
         O17       1.0000    0.11900   0.31030   0.36570   Biso      1.000     O          -0.389864           
         O18       1.0000    0.88980   0.04510   0.41690   Biso      1.000     O          -0.683232           
         O19       1.0000    0.61020   0.58310   0.95490   Biso      1.000     O          -0.683232           
         O20       1.0000    0.31800   0.93700   0.27460   Biso      1.000     O          -0.310353           
         O21       1.0000    0.03880   0.95210   0.43930   Biso      1.000     O          -0.735758           
         O22       1.0000    0.91590   0.87010   0.39910   Biso      1.000     O          -0.588423           
         O23       1.0000    0.92500   0.20470   0.06430   Biso      1.000     O          -0.34411  
         O24       1.0000    0.95200   0.17140   0.15740   Biso      1.000     O          -0.327101           
         O25       1.0000    0.83500   0.43910   0.36690   Biso      1.000     O          -0.297098           
         O26       1.0000    0.81800   0.32990   0.37570   Biso      1.000     O          -0.320334           
         O27       1.0000    0.70300   0.20710   0.20890   Biso      1.000     O          -0.348307           
         O28       1.0000    0.65870   0.14050   0.27370   Biso      1.000     O          -0.321064           
         O29       1.0000    0.05220   0.33660   0.28520   Biso      1.000     O          -0.284696           
         O30       1.0000    0.39200   0.85220   0.27180   Biso      1.000     O          -0.349264           
         O31       1.0000    0.73610   0.40710   0.04790   Biso      1.000     O          -0.651727           
         O32       1.0000    0.75080   0.49420   0.13920   Biso      1.000     O          -0.614959           
         O33       1.0000    0.04540   0.09820   0.44400   Biso      1.000     O          -0.616221           
         O34       1.0000    0.48300   0.73170   0.35870   Biso      1.000     O          -0.293871           
         O35       1.0000    0.98300   0.35870   0.73170   Biso      1.000     O          -0.293871           
         O36       1.0000    0.45200   0.15740   0.17140   Biso      1.000     O          -0.327101           
         O37       1.0000    0.60800   0.14780   0.72820   Biso      1.000     O          -0.349264           
         O38       1.0000    0.53880   0.43930   0.95210   Biso      1.000     O          -0.735758           
         O39       1.0000    0.41590   0.39910   0.87010   Biso      1.000     O          -0.588423           
         O40       1.0000    0.42500   0.06430   0.20470   Biso      1.000     O          -0.34411  
         O41       1.0000    0.33500   0.36690   0.43910   Biso      1.000     O          -0.297098           
         O42       1.0000    0.31800   0.37570   0.32990   Biso      1.000     O          -0.320334           
         O43       1.0000    0.20300   0.20890   0.20710   Biso      1.000     O          -0.348307           
         O44       1.0000    0.81800   0.27460   0.93700   Biso      1.000     O          -0.310353           
         O45       1.0000    0.15870   0.27370   0.14050   Biso      1.000     O          -0.321064           
         O46       1.0000    0.61900   0.36570   0.31030   Biso      1.000     O          -0.389864           
         O47       1.0000    0.23610   0.04790   0.40710   Biso      1.000     O          -0.651727           
         O48       1.0000    0.25080   0.13920   0.49420   Biso      1.000     O          -0.614959           
         O49       1.0000    0.54540   0.44400   0.09820   Biso      1.000     O          -0.616221           
         O50       1.0000    0.38980   0.41690   0.04510   Biso      1.000     O          -0.683232           
         O51       1.0000    0.17000   0.62360   0.26160   Biso      1.000     O          -0.335282           
         O52       1.0000    0.55220   0.28520   0.33660   Biso      1.000     O          -0.284696           
         O53       1.0000    0.89200   0.27180   0.85220   Biso      1.000     O          -0.349264           
         O54       1.0000    0.67000   0.26160   0.62360   Biso      1.000     O          -0.335282           
         O55       1.0000    0.51700   0.26830   0.64130   Biso      1.000     O          -0.293871           
         O56       1.0000    0.68200   0.06300   0.72540   Biso      1.000     O          -0.310353           
         O57       1.0000    0.96120   0.04790   0.56070   Biso      1.000     O          -0.735758           
         O58       1.0000    0.08410   0.12990   0.60090   Biso      1.000     O          -0.588423           
         O59       1.0000    0.07500   0.79530   0.93570   Biso      1.000     O          -0.34411  
         O60       1.0000    0.04800   0.82860   0.84260   Biso      1.000     O          -0.327101           
         O61       1.0000    0.16500   0.56090   0.63310   Biso      1.000     O          -0.297098           
         O62       1.0000    0.18200   0.67010   0.62430   Biso      1.000     O          -0.320334           
         O63       1.0000    0.29700   0.79290   0.79110   Biso      1.000     O          -0.348307           
         O64       1.0000    0.34130   0.85950   0.72630   Biso      1.000     O          -0.321064           
         O65       1.0000    0.94780   0.66340   0.71480   Biso      1.000     O          -0.284696           
         O66       1.0000    0.88100   0.68970   0.63430   Biso      1.000     O          -0.389864           
         O67       1.0000    0.26390   0.59290   0.95210   Biso      1.000     O          -0.651727           
         O68       1.0000    0.24920   0.50580   0.86080   Biso      1.000     O          -0.614959           
         O69       1.0000    0.95460   0.90180   0.55600   Biso      1.000     O          -0.616221           
         O70       1.0000    0.11020   0.95490   0.58310   Biso      1.000     O          -0.683232           
         O71       1.0000    0.83000   0.37640   0.73840   Biso      1.000     O          -0.335282           
         O72       1.0000    0.01700   0.64130   0.26830   Biso      1.000     O          -0.293871 