
##########################################################################
#               Crystallographic Information Format file
#               Produced by PyCifRW module
#
#  This is a CIF file.  CIF has been adopted by the International
#  Union of Crystallography as the standard for data archiving and
#  transmission.
#
#  For information on this file format, follow the CIF links at
#  http://www.iucr.org
##########################################################################

data_image0

_cell_length_a                          15.309
_cell_length_b                          18.7753
_cell_length_c                          18.7753
_cell_angle_alpha                       107.984
_cell_angle_beta                        95.8221
_cell_angle_gamma                       95.8221
_symmetry_space_group_name_H-M          'P 1'
_symmetry_int_tables_number             1
loop_
  _symmetry_equiv_pos_as_xyz
         'x, y, z' 
loop_
  _atom_site_label
  _atom_site_occupancy
  _atom_site_fract_x
  _atom_site_fract_y
  _atom_site_fract_z
  _atom_site_thermal_displace_type
  _atom_site_B_iso_or_equiv
  _atom_site_type_symbol
  _atom_site_charge
         C1        1.0000    0.26860   0.19920   0.16160   Biso      1.000     C          0.05421   
         C2        1.0000    0.70660   0.76700   0.88800   Biso      1.000     C          -0.122309           
         C3        1.0000    0.71080   0.69030   0.87410   Biso      1.000     C          0.021281  
         C4        1.0000    0.74210   0.64980   0.80700   Biso      1.000     C          -0.116451           
         C5        1.0000    0.77010   0.68890   0.75810   Biso      1.000     C          0.049745  
         C6        1.0000    0.76640   0.76310   0.76970   Biso      1.000     C          0.006388  
         C7        1.0000    0.79310   0.84110   0.60550   Biso      1.000     C          -0.114039           
         C8        1.0000    0.75550   0.80780   0.65580   Biso      1.000     C          0.045855  
         C9        1.0000    0.80170   0.80430   0.72090   Biso      1.000     C          0.018592  
         C10       1.0000    0.89100   0.83610   0.73430   Biso      1.000     C          0.039917  
         C11       1.0000    0.93170   0.86960   0.68720   Biso      1.000     C          -0.129714           
         C12       1.0000    0.87940   0.87270   0.62190   Biso      1.000     C          0.002452  
         C13       1.0000    0.92210   0.91400   0.57620   Biso      1.000     C          0.684457  
         C14       1.0000    0.34670   0.60410   0.17610   Biso      1.000     C          -0.10679  
         C15       1.0000    0.28180   0.63810   0.21890   Biso      1.000     C          0.054931  
         C16       1.0000    0.28620   0.71610   0.24550   Biso      1.000     C          -0.02051  
         C17       1.0000    0.36120   0.75990   0.23350   Biso      1.000     C          0.054547  
         C18       1.0000    0.42300   0.72470   0.19210   Biso      1.000     C          -0.111037           
         C19       1.0000    0.73140   0.80080   0.83840   Biso      1.000     C          0.05423   
         C20       1.0000    0.41830   0.64880   0.16300   Biso      1.000     C          0.014084  
         C21       1.0000    0.68200   0.65000   0.92460   Biso      1.000     C          0.592822  
         C22       1.0000    0.08170   0.83700   0.35120   Biso      1.000     C          0.014068  
         C23       1.0000    0.20660   0.88800   0.76700   Biso      1.000     C          -0.12231  
         C24       1.0000    0.21080   0.87410   0.69030   Biso      1.000     C          0.021281  
         C25       1.0000    0.24210   0.80700   0.64980   Biso      1.000     C          -0.116451           
         C26       1.0000    0.27010   0.75810   0.68890   Biso      1.000     C          0.049745  
         C27       1.0000    0.26640   0.76970   0.76310   Biso      1.000     C          0.006388  
         C28       1.0000    0.29310   0.60550   0.84110   Biso      1.000     C          -0.114039           
         C29       1.0000    0.25550   0.65580   0.80780   Biso      1.000     C          0.045855  
         C30       1.0000    0.30170   0.72090   0.80430   Biso      1.000     C          0.018592  
         C31       1.0000    0.39100   0.73430   0.83610   Biso      1.000     C          0.039917  
         C32       1.0000    0.43170   0.68720   0.86960   Biso      1.000     C          -0.129714           
         C33       1.0000    0.37940   0.62190   0.87270   Biso      1.000     C          0.002452  
         C34       1.0000    0.42210   0.57620   0.91400   Biso      1.000     C          0.684457  
         C35       1.0000    0.15330   0.82390   0.39590   Biso      1.000     C          -0.106788           
         C36       1.0000    0.21820   0.78110   0.36190   Biso      1.000     C          0.054931  
         C37       1.0000    0.21380   0.75450   0.28390   Biso      1.000     C          -0.02051  
         C38       1.0000    0.13880   0.76650   0.24010   Biso      1.000     C          0.054545  
         C39       1.0000    0.07700   0.80790   0.27530   Biso      1.000     C          -0.111019           
         C40       1.0000    0.01710   0.88850   0.38630   Biso      1.000     C          0.659754  
         C41       1.0000    0.48290   0.61370   0.11150   Biso      1.000     C          0.659753  
         C42       1.0000    0.81800   0.07540   0.35000   Biso      1.000     C          0.592822  
         C43       1.0000    0.76860   0.16160   0.19920   Biso      1.000     C          0.05421   
         C44       1.0000    0.10900   0.16390   0.26570   Biso      1.000     C          0.039917  
         C45       1.0000    0.19830   0.19570   0.27910   Biso      1.000     C          0.018588  
         C46       1.0000    0.24450   0.19220   0.34420   Biso      1.000     C          0.045859  
         C47       1.0000    0.20690   0.15890   0.39450   Biso      1.000     C          -0.11404  
         C48       1.0000    0.23360   0.23690   0.23030   Biso      1.000     C          0.006377  
         C49       1.0000    0.22990   0.31110   0.24190   Biso      1.000     C          0.049757  
         C50       1.0000    0.25790   0.35020   0.19300   Biso      1.000     C          -0.116452           
         C51       1.0000    0.28920   0.30970   0.12590   Biso      1.000     C          0.021278  
         C52       1.0000    0.29340   0.23300   0.11200   Biso      1.000     C          -0.122286           
         C53       1.0000    0.31800   0.35000   0.07540   Biso      1.000     C          0.592822  
         C54       1.0000    0.98290   0.11150   0.61370   Biso      1.000     C          0.659754  
         C55       1.0000    0.91830   0.16300   0.64880   Biso      1.000     C          0.014068  
         C56       1.0000    0.92300   0.19210   0.72470   Biso      1.000     C          -0.111023           
         C57       1.0000    0.86120   0.23350   0.75990   Biso      1.000     C          0.054548  
         C58       1.0000    0.78620   0.24550   0.71610   Biso      1.000     C          -0.02051  
         C59       1.0000    0.78180   0.21890   0.63810   Biso      1.000     C          0.054931  
         C60       1.0000    0.84670   0.17610   0.60410   Biso      1.000     C          -0.106789           
         C61       1.0000    0.06830   0.13040   0.31280   Biso      1.000     C          -0.129714           
         C62       1.0000    0.12060   0.12730   0.37810   Biso      1.000     C          0.002452  
         C63       1.0000    0.07790   0.08600   0.42380   Biso      1.000     C          0.684456  
         C64       1.0000    0.65330   0.39590   0.82390   Biso      1.000     C          -0.106788           
         C65       1.0000    0.79340   0.11200   0.23300   Biso      1.000     C          -0.122287           
         C66       1.0000    0.78920   0.12590   0.30970   Biso      1.000     C          0.021279  
         C67       1.0000    0.75790   0.19300   0.35020   Biso      1.000     C          -0.116451           
         C68       1.0000    0.72990   0.24190   0.31110   Biso      1.000     C          0.049745  
         C69       1.0000    0.73360   0.23030   0.23690   Biso      1.000     C          0.006389  
         C70       1.0000    0.70690   0.39450   0.15890   Biso      1.000     C          -0.114039           
         C71       1.0000    0.74450   0.34420   0.19220   Biso      1.000     C          0.045855  
         C72       1.0000    0.69830   0.27910   0.19570   Biso      1.000     C          0.018591  
         C73       1.0000    0.23140   0.83840   0.80080   Biso      1.000     C          0.05423   
         C74       1.0000    0.60900   0.26570   0.16390   Biso      1.000     C          0.039917  
         C75       1.0000    0.62060   0.37810   0.12730   Biso      1.000     C          0.002452  
         C76       1.0000    0.57790   0.42380   0.08600   Biso      1.000     C          0.684457  
         C77       1.0000    0.51710   0.38630   0.88850   Biso      1.000     C          0.659754  
         C78       1.0000    0.58170   0.35120   0.83700   Biso      1.000     C          0.014068  
         C79       1.0000    0.57700   0.27530   0.80790   Biso      1.000     C          -0.111023           
         C80       1.0000    0.63880   0.24010   0.76650   Biso      1.000     C          0.054548  
         C81       1.0000    0.71380   0.28390   0.75450   Biso      1.000     C          -0.02051  
         C82       1.0000    0.71820   0.36190   0.78110   Biso      1.000     C          0.054931  
         C83       1.0000    0.56830   0.31280   0.13040   Biso      1.000     C          -0.129714           
         C84       1.0000    0.18200   0.92460   0.65000   Biso      1.000     C          0.592822  
         Gd1       1.0000    0.61739   0.56668   0.01534   Biso      1.000     Gd          2.042853  
         Gd2       1.0000    0.88261   0.98466   0.43332   Biso      1.000     Gd          2.042853  
         Gd3       1.0000    0.38261   0.43332   0.98466   Biso      1.000     Gd          2.042853  
         Gd4       1.0000    0.11739   0.01534   0.56668   Biso      1.000     Gd          2.042853  
         H1        1.0000    0.97050   0.18370   0.75470   Biso      1.000     H          0.145998  
         H2        1.0000    0.50850   0.30160   0.11060   Biso      1.000     H          0.147972  
         H3        1.0000    0.74120   0.43820   0.15880   Biso      1.000     H          0.144432  
         H4        1.0000    0.75580   0.20470   0.40190   Biso      1.000     H          0.151813  
         H5        1.0000    0.81360   0.06830   0.20510   Biso      1.000     H          0.151834  
         H6        1.0000    0.47050   0.75470   0.18370   Biso      1.000     H          0.145999  
         H7        1.0000    0.34170   0.55160   0.15660   Biso      1.000     H          0.141522  
         H8        1.0000    0.99150   0.88940   0.69840   Biso      1.000     H          0.147972  
         H9        1.0000    0.75880   0.84120   0.56180   Biso      1.000     H          0.144432  
         H10       1.0000    0.74420   0.59810   0.79530   Biso      1.000     H          0.151813  
         H11       1.0000    0.84170   0.15660   0.55160   Biso      1.000     H          0.141522  
         H12       1.0000    0.02950   0.81630   0.24530   Biso      1.000     H          0.145998  
         H13       1.0000    0.31360   0.20510   0.06830   Biso      1.000     H          0.151834  
         H14       1.0000    0.68640   0.79490   0.93170   Biso      1.000     H          0.151836  
         H15       1.0000    0.24120   0.15880   0.43820   Biso      1.000     H          0.144432  
         H16       1.0000    0.00850   0.11060   0.30160   Biso      1.000     H          0.147972  
         H17       1.0000    0.65830   0.44840   0.84340   Biso      1.000     H          0.141522  
         H18       1.0000    0.52950   0.24530   0.81630   Biso      1.000     H          0.145998  
         H19       1.0000    0.25580   0.40190   0.20470   Biso      1.000     H          0.151814  
         H20       1.0000    0.24420   0.79530   0.59810   Biso      1.000     H          0.151813  
         H21       1.0000    0.25880   0.56180   0.84120   Biso      1.000     H          0.144432  
         H22       1.0000    0.49150   0.69840   0.88940   Biso      1.000     H          0.147972  
         H23       1.0000    0.15830   0.84340   0.44840   Biso      1.000     H          0.141522  
         H24       1.0000    0.18640   0.93170   0.79490   Biso      1.000     H          0.151836  
         N1        1.0000    0.16210   0.63530   0.77310   Biso      1.000     N          0.571415  
         N2        1.0000    0.70530   0.23760   0.60060   Biso      1.000     N          0.540211  
         N3        1.0000    0.87660   0.26460   0.84460   Biso      1.000     N          0.528161  
         N4        1.0000    0.27660   0.11810   0.14250   Biso      1.000     N          0.544228  
         N5        1.0000    0.19090   0.35720   0.30780   Biso      1.000     N          0.490765  
         N6        1.0000    0.33790   0.22690   0.36470   Biso      1.000     N          0.571414  
         N7        1.0000    0.04950   0.16260   0.19800   Biso      1.000     N          0.52692   
         N8        1.0000    0.79470   0.39940   0.76240   Biso      1.000     N          0.540211  
         N9        1.0000    0.62340   0.15540   0.73540   Biso      1.000     N          0.528161  
         N10       1.0000    0.30910   0.69220   0.64280   Biso      1.000     N          0.490766  
         N11       1.0000    0.45050   0.80200   0.83740   Biso      1.000     N          0.526919  
         N12       1.0000    0.22340   0.85750   0.88190   Biso      1.000     N          0.544227  
         N13       1.0000    0.12340   0.73540   0.15540   Biso      1.000     N          0.528161  
         N14       1.0000    0.29470   0.76240   0.39940   Biso      1.000     N          0.540211  
         N15       1.0000    0.54950   0.19800   0.16260   Biso      1.000     N          0.526919  
         N16       1.0000    0.83790   0.36470   0.22690   Biso      1.000     N          0.571415  
         N17       1.0000    0.69090   0.30780   0.35720   Biso      1.000     N          0.490766  
         N18       1.0000    0.37660   0.84460   0.26460   Biso      1.000     N          0.528161  
         N19       1.0000    0.77660   0.14250   0.11810   Biso      1.000     N          0.544228  
         N20       1.0000    0.95050   0.83740   0.80200   Biso      1.000     N          0.52692   
         N21       1.0000    0.66210   0.77310   0.63530   Biso      1.000     N          0.571415  
         N22       1.0000    0.80910   0.64280   0.69220   Biso      1.000     N          0.490766  
         N23       1.0000    0.72340   0.88190   0.85750   Biso      1.000     N          0.544227  
         N24       1.0000    0.20530   0.60060   0.23760   Biso      1.000     N          0.540211  
         O1        1.0000    0.21880   0.80630   0.90870   Biso      1.000     O          -0.349905           
         O2        1.0000    0.55510   0.12250   0.74050   Biso      1.000     O          -0.304933           
         O3        1.0000    0.44670   0.34730   0.88550   Biso      1.000     O          -0.576515           
         O4        1.0000    0.53820   0.45350   0.93230   Biso      1.000     O          -0.749464           
         O5        1.0000    0.21990   0.92180   0.91600   Biso      1.000     O          -0.292645           
         O6        1.0000    0.28520   0.63030   0.65530   Biso      1.000     O          -0.338989           
         O7        1.0000    0.16950   0.98930   0.68710   Biso      1.000     O          -0.608807           
         O8        1.0000    0.12050   0.68060   0.75960   Biso      1.000     O          -0.331485           
         O9        1.0000    0.13360   0.57130   0.75610   Biso      1.000     O          -0.320108           
         O10       1.0000    0.41530   0.86310   0.85630   Biso      1.000     O          -0.358297           
         O11       1.0000    0.52570   0.80020   0.83520   Biso      1.000     O          -0.254825           
         O12       1.0000    0.64900   0.12610   0.67510   Biso      1.000     O          -0.342616           
         O13       1.0000    0.17110   0.90010   0.57730   Biso      1.000     O          -0.663208           
         O14       1.0000    0.49820   0.59990   0.94750   Biso      1.000     O          -0.624146           
         O15       1.0000    0.35000   0.69940   0.59160   Biso      1.000     O          -0.273544           
         O16       1.0000    0.86970   0.38980   0.76980   Biso      1.000     O          -0.287353           
         O17       1.0000    0.97430   0.16480   0.19980   Biso      1.000     O          -0.254826           
         O18       1.0000    0.12490   0.09120   0.48460   Biso      1.000     O          -0.70033  
         O19       1.0000    0.37510   0.51540   0.90880   Biso      1.000     O          -0.70033  
         O20       1.0000    0.94490   0.25950   0.87750   Biso      1.000     O          -0.304933           
         O21       1.0000    0.05330   0.11450   0.65270   Biso      1.000     O          -0.576515           
         O22       1.0000    0.96180   0.06770   0.54650   Biso      1.000     O          -0.749464           
         O23       1.0000    0.28010   0.08400   0.07820   Biso      1.000     O          -0.292645           
         O24       1.0000    0.28120   0.09130   0.19370   Biso      1.000     O          -0.349905           
         O25       1.0000    0.21480   0.34470   0.36970   Biso      1.000     O          -0.338989           
         O26       1.0000    0.15000   0.40840   0.30060   Biso      1.000     O          -0.273544           
         O27       1.0000    0.37950   0.24040   0.31940   Biso      1.000     O          -0.331485           
         O28       1.0000    0.36640   0.24390   0.42870   Biso      1.000     O          -0.320108           
         O29       1.0000    0.08470   0.14370   0.13690   Biso      1.000     O          -0.358296           
         O30       1.0000    0.85100   0.32490   0.87390   Biso      1.000     O          -0.342616           
         O31       1.0000    0.33050   0.31290   0.01070   Biso      1.000     O          -0.608808           
         O32       1.0000    0.32890   0.42270   0.09990   Biso      1.000     O          -0.663208           
         O33       1.0000    0.00180   0.05250   0.40010   Biso      1.000     O          -0.624146           
         O34       1.0000    0.78600   0.46500   0.77360   Biso      1.000     O          -0.329159           
         O35       1.0000    0.28600   0.77360   0.46500   Biso      1.000     O          -0.329159           
         O36       1.0000    0.78120   0.19370   0.09130   Biso      1.000     O          -0.349905           
         O37       1.0000    0.14900   0.67510   0.12610   Biso      1.000     O          -0.342616           
         O38       1.0000    0.55330   0.65270   0.11450   Biso      1.000     O          -0.576515           
         O39       1.0000    0.46180   0.54650   0.06770   Biso      1.000     O          -0.749464           
         O40       1.0000    0.78010   0.07820   0.08400   Biso      1.000     O          -0.292645           
         O41       1.0000    0.71480   0.36970   0.34470   Biso      1.000     O          -0.338989           
         O42       1.0000    0.65000   0.30060   0.40840   Biso      1.000     O          -0.273544           
         O43       1.0000    0.87950   0.31940   0.24040   Biso      1.000     O          -0.331485           
         O44       1.0000    0.44490   0.87750   0.25950   Biso      1.000     O          -0.304933           
         O45       1.0000    0.86640   0.42870   0.24390   Biso      1.000     O          -0.320108           
         O46       1.0000    0.47430   0.19980   0.16480   Biso      1.000     O          -0.254826           
         O47       1.0000    0.83050   0.01070   0.31290   Biso      1.000     O          -0.608808           
         O48       1.0000    0.82890   0.09990   0.42270   Biso      1.000     O          -0.663208           
         O49       1.0000    0.50180   0.40010   0.05250   Biso      1.000     O          -0.624146           
         O50       1.0000    0.62490   0.48460   0.09120   Biso      1.000     O          -0.70033  
         O51       1.0000    0.63030   0.23020   0.61020   Biso      1.000     O          -0.287353           
         O52       1.0000    0.58470   0.13690   0.14370   Biso      1.000     O          -0.358296           
         O53       1.0000    0.35100   0.87390   0.32490   Biso      1.000     O          -0.342616           
         O54       1.0000    0.13030   0.61020   0.23020   Biso      1.000     O          -0.287353           
         O55       1.0000    0.21400   0.53500   0.22640   Biso      1.000     O          -0.329159           
         O56       1.0000    0.05510   0.74050   0.12250   Biso      1.000     O          -0.304933           
         O57       1.0000    0.94670   0.88550   0.34730   Biso      1.000     O          -0.576515           
         O58       1.0000    0.03820   0.93230   0.45350   Biso      1.000     O          -0.749464           
         O59       1.0000    0.71990   0.91600   0.92180   Biso      1.000     O          -0.292645           
         O60       1.0000    0.71880   0.90870   0.80630   Biso      1.000     O          -0.349905           
         O61       1.0000    0.78520   0.65530   0.63030   Biso      1.000     O          -0.338989           
         O62       1.0000    0.85000   0.59160   0.69940   Biso      1.000     O          -0.273544           
         O63       1.0000    0.62050   0.75960   0.68060   Biso      1.000     O          -0.331485           
         O64       1.0000    0.63360   0.75610   0.57130   Biso      1.000     O          -0.320108           
         O65       1.0000    0.91530   0.85630   0.86310   Biso      1.000     O          -0.358297           
         O66       1.0000    0.02570   0.83520   0.80020   Biso      1.000     O          -0.254825           
         O67       1.0000    0.66950   0.68710   0.98930   Biso      1.000     O          -0.608807           
         O68       1.0000    0.67110   0.57730   0.90010   Biso      1.000     O          -0.663208           
         O69       1.0000    0.99820   0.94750   0.59990   Biso      1.000     O          -0.624146           
         O70       1.0000    0.87510   0.90880   0.51540   Biso      1.000     O          -0.70033  
         O71       1.0000    0.36970   0.76980   0.38980   Biso      1.000     O          -0.287353           
         O72       1.0000    0.71400   0.22640   0.53500   Biso      1.000     O          -0.329159 