
##########################################################################
#               Crystallographic Information Format file
#               Produced by PyCifRW module
#
#  This is a CIF file.  CIF has been adopted by the International
#  Union of Crystallography as the standard for data archiving and
#  transmission.
#
#  For information on this file format, follow the CIF links at
#  http://www.iucr.org
##########################################################################

data_image0

_cell_length_a                          7.8177
_cell_length_b                          8.4322
_cell_length_c                          9.4845
_cell_angle_alpha                       90
_cell_angle_beta                        90
_cell_angle_gamma                       117.617
_symmetry_space_group_name_H-M          'P 1'
_symmetry_int_tables_number             1
loop_
  _symmetry_equiv_pos_as_xyz
         'x, y, z' 
loop_
  _atom_site_label
  _atom_site_occupancy
  _atom_site_fract_x
  _atom_site_fract_y
  _atom_site_fract_z
  _atom_site_thermal_displace_type
  _atom_site_B_iso_or_equiv
  _atom_site_type_symbol
  _atom_site_charge
         C1        1.0000    0.46700   0.55000   0.00300   Biso      1.000     C          0.854633  
         C2        1.0000    0.59300   0.98600   0.74700   Biso      1.000     C          0.500534  
         C3        1.0000    0.08300   0.55000   0.49700   Biso      1.000     C          0.8556299999999999  
         C4        1.0000    0.40700   0.01400   0.24700   Biso      1.000     C          0.500534  
         C5        1.0000    0.91700   0.45000   0.99700   Biso      1.000     C          0.8556299999999999  
         C6        1.0000    0.39300   0.98600   0.75300   Biso      1.000     C          0.5004890000000001  
         C7        1.0000    0.60700   0.01400   0.25300   Biso      1.000     C          0.500488  
         C8        1.0000    0.53300   0.45000   0.50300   Biso      1.000     C          0.854633  
         O1        1.0000    0.40200   0.14200   0.74600   Biso      1.000     O          -0.556833           
         O2        1.0000    0.25250   0.83700   0.78300   Biso      1.000     O          -0.564625           
         O3        1.0000    0.48400   0.47400   0.88700   Biso      1.000     O          -0.702759           
         O4        1.0000    0.36470   0.62980   0.00500   Biso      1.000     O          -0.678465           
         O5        1.0000    0.26510   0.62980   0.49500   Biso      1.000     O          -0.679307           
         O6        1.0000    0.00700   0.47400   0.87700   Biso      1.000     O          -0.711711           
         O7        1.0000    0.59800   0.85800   0.24600   Biso      1.000     O          -0.556833           
         O8        1.0000    0.74750   0.16300   0.28300   Biso      1.000     O          -0.564625           
         O9        1.0000    0.51600   0.52600   0.38700   Biso      1.000     O          -0.702759           
         O10       1.0000    0.53300   0.52600   0.12300   Biso      1.000     O          -0.71145  
         O11       1.0000    0.73490   0.37020   0.99500   Biso      1.000     O          -0.679307           
         O12       1.0000    0.46700   0.47400   0.62300   Biso      1.000     O          -0.71145  
         O13       1.0000    0.41550   0.16300   0.21700   Biso      1.000     O          -0.5647949999999999           
         O14       1.0000    0.26000   0.85800   0.25400   Biso      1.000     O          -0.556561           
         O15       1.0000    0.99300   0.52600   0.37700   Biso      1.000     O          -0.711712           
         O16       1.0000    0.63530   0.37020   0.50500   Biso      1.000     O          -0.678465           
         O17       1.0000    0.99000   0.47400   0.61300   Biso      1.000     O          -0.7028810000000001           
         O18       1.0000    0.58450   0.83700   0.71700   Biso      1.000     O          -0.5647949999999999           
         O19       1.0000    0.74000   0.14200   0.75400   Biso      1.000     O          -0.556561           
         O20       1.0000    0.01000   0.52600   0.11300   Biso      1.000     O          -0.7028810000000001           
         Y1        1.0000    0.70740   0.41480   0.25000   Biso      1.000     Y          1.831491  
         Y2        1.0000    0.29320   0.58640   0.25000   Biso      1.000     Y          1.886611  
         Y3        1.0000    0.29260   0.58520   0.75000   Biso      1.000     Y          1.831491  
         Y4        1.0000    0.70680   0.41360   0.75000   Biso      1.000     Y          1.886611 