
##########################################################################
#               Crystallographic Information Format file
#               Produced by PyCifRW module
#
#  This is a CIF file.  CIF has been adopted by the International
#  Union of Crystallography as the standard for data archiving and
#  transmission.
#
#  For information on this file format, follow the CIF links at
#  http://www.iucr.org
##########################################################################

data_image0

_cell_length_a                          7.8198
_cell_length_b                          8.4354
_cell_length_c                          9.4908
_cell_angle_alpha                       90
_cell_angle_beta                        90
_cell_angle_gamma                       117.614
_symmetry_space_group_name_H-M          'P 1'
_symmetry_int_tables_number             1
loop_
  _symmetry_equiv_pos_as_xyz
         'x, y, z' 
loop_
  _atom_site_label
  _atom_site_occupancy
  _atom_site_fract_x
  _atom_site_fract_y
  _atom_site_fract_z
  _atom_site_thermal_displace_type
  _atom_site_B_iso_or_equiv
  _atom_site_type_symbol
  _atom_site_charge
         C1        1.0000    0.47050   0.55080   0.99950   Biso      1.000     C          0.888776  
         C2        1.0000    0.59820   0.99780   0.74270   Biso      1.000     C          0.516528  
         C3        1.0000    0.08030   0.55080   0.50050   Biso      1.000     C          0.888656  
         C4        1.0000    0.40180   0.00220   0.24270   Biso      1.000     C          0.516528  
         C5        1.0000    0.91970   0.44920   0.00050   Biso      1.000     C          0.888656  
         C6        1.0000    0.39960   0.99780   0.75730   Biso      1.000     C          0.516104  
         C7        1.0000    0.60040   0.00220   0.25730   Biso      1.000     C          0.516104  
         C8        1.0000    0.52950   0.44920   0.49950   Biso      1.000     C          0.888776  
         O1        1.0000    0.40230   0.14520   0.76300   Biso      1.000     O          -0.5607850000000001           
         O2        1.0000    0.25430   0.84560   0.76390   Biso      1.000     O          -0.5794779999999999           
         O3        1.0000    0.50930   0.50680   0.88030   Biso      1.000     O          -0.708697           
         O4        1.0000    0.37410   0.63960   0.99680   Biso      1.000     O          -0.711892           
         O5        1.0000    0.26550   0.63960   0.50320   Biso      1.000     O          -0.71211  
         O6        1.0000    0.00330   0.49480   0.88140   Biso      1.000     O          -0.703303           
         O7        1.0000    0.59770   0.85480   0.26300   Biso      1.000     O          -0.560786           
         O8        1.0000    0.74570   0.15440   0.26390   Biso      1.000     O          -0.5794779999999999           
         O9        1.0000    0.49070   0.49320   0.38030   Biso      1.000     O          -0.708697           
         O10       1.0000    0.50850   0.50520   0.11860   Biso      1.000     O          -0.703538           
         O11       1.0000    0.73450   0.36040   0.00320   Biso      1.000     O          -0.7121109999999999           
         O12       1.0000    0.49150   0.49480   0.61860   Biso      1.000     O          -0.703538           
         O13       1.0000    0.40870   0.15440   0.23610   Biso      1.000     O          -0.579267           
         O14       1.0000    0.25710   0.85480   0.23700   Biso      1.000     O          -0.5613199999999999           
         O15       1.0000    0.99670   0.50520   0.38140   Biso      1.000     O          -0.703303           
         O16       1.0000    0.62590   0.36040   0.49680   Biso      1.000     O          -0.711892           
         O17       1.0000    0.99750   0.50680   0.61970   Biso      1.000     O          -0.708342           
         O18       1.0000    0.59130   0.84560   0.73610   Biso      1.000     O          -0.579267           
         O19       1.0000    0.74290   0.14520   0.73700   Biso      1.000     O          -0.5613199999999999           
         O20       1.0000    0.00250   0.49320   0.11970   Biso      1.000     O          -0.708342           
         Y1        1.0000    0.70723   0.41446   0.25000   Biso      1.000     Y          1.8634060000000001  
         Y2        1.0000    0.29284   0.58568   0.25000   Biso      1.000     Y          1.855264  
         Y3        1.0000    0.29277   0.58554   0.75000   Biso      1.000     Y          1.8634060000000001  
         Y4        1.0000    0.70716   0.41432   0.75000   Biso      1.000     Y          1.855264 