
##########################################################################
#               Crystallographic Information Format file
#               Produced by PyCifRW module
#
#  This is a CIF file.  CIF has been adopted by the International
#  Union of Crystallography as the standard for data archiving and
#  transmission.
#
#  For information on this file format, follow the CIF links at
#  http://www.iucr.org
##########################################################################

data_image0

_cell_length_a                          11.3805
_cell_length_b                          9.8406
_cell_length_c                          14.5057
_cell_angle_alpha                       90
_cell_angle_beta                        91.429
_cell_angle_gamma                       90
_symmetry_space_group_name_H-M          'P 1'
_symmetry_int_tables_number             1
loop_
  _symmetry_equiv_pos_as_xyz
         'x, y, z' 
loop_
  _atom_site_label
  _atom_site_occupancy
  _atom_site_fract_x
  _atom_site_fract_y
  _atom_site_fract_z
  _atom_site_thermal_displace_type
  _atom_site_B_iso_or_equiv
  _atom_site_type_symbol
  _atom_site_charge
         C1        1.0000    0.52053   0.98354   0.21069   Biso      1.000     C          0.561372  
         C2        1.0000    0.05178   0.13435   0.81616   Biso      1.000     C          0.561657  
         C3        1.0000    0.25826   0.09788   0.03030   Biso      1.000     C          0.568306  
         C4        1.0000    0.17124   0.82743   0.66875   Biso      1.000     C          0.567341  
         C5        1.0000    0.06661   0.72355   0.94295   Biso      1.000     C          0.565655  
         C6        1.0000    0.42337   0.71114   0.94862   Biso      1.000     C          0.564258  
         C7        1.0000    0.47947   0.01646   0.78931   Biso      1.000     C          0.561372  
         C8        1.0000    0.92337   0.78886   0.44862   Biso      1.000     C          0.564258  
         C9        1.0000    0.56661   0.77645   0.44295   Biso      1.000     C          0.565655  
         C10       1.0000    0.67124   0.67257   0.16875   Biso      1.000     C          0.567341  
         C11       1.0000    0.75826   0.40212   0.53030   Biso      1.000     C          0.568306  
         C12       1.0000    0.55178   0.36565   0.31616   Biso      1.000     C          0.561657  
         C13       1.0000    0.44822   0.63435   0.68384   Biso      1.000     C          0.561657  
         C14       1.0000    0.24174   0.59788   0.46970   Biso      1.000     C          0.568306  
         C15       1.0000    0.32876   0.32743   0.83125   Biso      1.000     C          0.567341  
         C16       1.0000    0.43339   0.22355   0.55705   Biso      1.000     C          0.565655  
         C17       1.0000    0.97947   0.48354   0.28931   Biso      1.000     C          0.561372  
         C18       1.0000    0.07663   0.21114   0.55138   Biso      1.000     C          0.564258  
         C19       1.0000    0.93339   0.27645   0.05705   Biso      1.000     C          0.565655  
         C20       1.0000    0.02053   0.51646   0.71069   Biso      1.000     C          0.561372  
         C21       1.0000    0.94822   0.86565   0.18384   Biso      1.000     C          0.561657  
         C22       1.0000    0.57663   0.28886   0.05138   Biso      1.000     C          0.564258  
         C23       1.0000    0.82876   0.17257   0.33125   Biso      1.000     C          0.567341  
         C24       1.0000    0.74174   0.90212   0.96970   Biso      1.000     C          0.568306  
         H1        1.0000    0.93980   0.88070   0.45680   Biso      1.000     H          0.028919  
         H2        1.0000    0.85890   0.24120   0.36900   Biso      1.000     H          0.0261    
         H3        1.0000    0.02080   0.46130   0.23690   Biso      1.000     H          0.032343  
         H4        1.0000    0.06020   0.11930   0.54320   Biso      1.000     H          0.028919  
         H5        1.0000    0.69930   0.84660   0.92910   Biso      1.000     H          0.028335  
         H6        1.0000    0.00390   0.70600   0.98110   Biso      1.000     H          0.029356  
         H7        1.0000    0.97360   0.80150   0.22700   Biso      1.000     H          0.025613  
         H8        1.0000    0.14110   0.75880   0.63100   Biso      1.000     H          0.0261    
         H9        1.0000    0.30070   0.15340   0.07090   Biso      1.000     H          0.028335  
         H10       1.0000    0.52080   0.03870   0.73690   Biso      1.000     H          0.032343  
         H11       1.0000    0.43980   0.61930   0.95680   Biso      1.000     H          0.028919  
         H12       1.0000    0.99610   0.29400   0.01890   Biso      1.000     H          0.029356  
         H13       1.0000    0.64110   0.74120   0.13100   Biso      1.000     H          0.0261    
         H14       1.0000    0.97920   0.53870   0.76310   Biso      1.000     H          0.032343  
         H15       1.0000    0.49610   0.20600   0.51890   Biso      1.000     H          0.029356  
         H16       1.0000    0.35890   0.25880   0.86900   Biso      1.000     H          0.0261    
         H17       1.0000    0.47920   0.96130   0.26310   Biso      1.000     H          0.032343  
         H18       1.0000    0.50390   0.79400   0.48110   Biso      1.000     H          0.029356  
         H19       1.0000    0.47360   0.69850   0.72700   Biso      1.000     H          0.025613  
         H20       1.0000    0.19930   0.65340   0.42910   Biso      1.000     H          0.028335  
         H21       1.0000    0.52640   0.30150   0.27300   Biso      1.000     H          0.025613  
         H22       1.0000    0.56020   0.38070   0.04320   Biso      1.000     H          0.028919  
         H23       1.0000    0.80070   0.34660   0.57090   Biso      1.000     H          0.028335  
         H24       1.0000    0.02640   0.19850   0.77300   Biso      1.000     H          0.025613  
         Mg1       1.0000    0.73929   0.89078   0.31060   Biso      1.000     Mg          1.330685  
         Mg2       1.0000    0.75647   0.08095   0.13437   Biso      1.000     Mg          1.344022  
         Mg3       1.0000    0.00000   0.50000   0.50000   Biso      1.000     Mg          1.337994  
         Mg4       1.0000    0.50000   0.00000   0.00000   Biso      1.000     Mg          1.337994  
         Mg5       1.0000    0.25647   0.41905   0.63437   Biso      1.000     Mg          1.344022  
         Mg6       1.0000    0.76071   0.39078   0.18940   Biso      1.000     Mg          1.330685  
         Mg7       1.0000    0.00000   0.00000   0.00000   Biso      1.000     Mg          1.349361  
         Mg8       1.0000    0.23929   0.60922   0.81060   Biso      1.000     Mg          1.330685  
         Mg9       1.0000    0.26071   0.10922   0.68940   Biso      1.000     Mg          1.330685  
         Mg10      1.0000    0.74353   0.58095   0.36563   Biso      1.000     Mg          1.344022  
         Mg11      1.0000    0.50000   0.50000   0.50000   Biso      1.000     Mg          1.349362  
         Mg12      1.0000    0.24353   0.91905   0.86563   Biso      1.000     Mg          1.344022  
         O1        1.0000    0.51837   0.20771   0.00396   Biso      1.000     O          -0.571181           
         O2        1.0000    0.89986   0.15274   0.06333   Biso      1.000     O          -0.683863           
         O3        1.0000    0.89008   0.37489   0.09708   Biso      1.000     O          -0.58296  
         O4        1.0000    0.80748   0.20268   0.24687   Biso      1.000     O          -0.688256           
         O5        1.0000    0.81286   0.05988   0.36741   Biso      1.000     O          -0.579508           
         O6        1.0000    0.68277   0.97611   0.02466   Biso      1.000     O          -0.692069           
         O7        1.0000    0.84981   0.89805   0.96589   Biso      1.000     O          -0.579152           
         O8        1.0000    0.84829   0.92058   0.19661   Biso      1.000     O          -0.685203           
         O9        1.0000    0.01428   0.88951   0.11969   Biso      1.000     O          -0.567673           
         O10       1.0000    0.34829   0.57942   0.69661   Biso      1.000     O          -0.685204           
         O11       1.0000    0.34981   0.60195   0.46589   Biso      1.000     O          -0.579152           
         O12       1.0000    0.18277   0.52389   0.52466   Biso      1.000     O          -0.692069           
         O13       1.0000    0.31286   0.44012   0.86741   Biso      1.000     O          -0.579508           
         O14       1.0000    0.30748   0.29732   0.74687   Biso      1.000     O          -0.688256           
         O15       1.0000    0.39008   0.12511   0.59708   Biso      1.000     O          -0.58296  
         O16       1.0000    0.39986   0.34726   0.56333   Biso      1.000     O          -0.683863           
         O17       1.0000    0.01837   0.29229   0.50396   Biso      1.000     O          -0.571181           
         O18       1.0000    0.15722   0.24187   0.61046   Biso      1.000     O          -0.682405           
         O19       1.0000    0.96310   0.50172   0.63788   Biso      1.000     O          -0.576599           
         O20       1.0000    0.13109   0.50375   0.71982   Biso      1.000     O          -0.688771           
         O21       1.0000    0.51428   0.61049   0.61969   Biso      1.000     O          -0.567673           
         O22       1.0000    0.65722   0.25813   0.11046   Biso      1.000     O          -0.682405           
         O23       1.0000    0.86891   0.49625   0.28018   Biso      1.000     O          -0.68877  
         O24       1.0000    0.36891   0.00375   0.78018   Biso      1.000     O          -0.688771           
         O25       1.0000    0.03690   0.49828   0.36212   Biso      1.000     O          -0.576599           
         O26       1.0000    0.84278   0.75813   0.38954   Biso      1.000     O          -0.682404           
         O27       1.0000    0.98163   0.70771   0.49604   Biso      1.000     O          -0.571181           
         O28       1.0000    0.60014   0.65274   0.43667   Biso      1.000     O          -0.683863           
         O29       1.0000    0.60992   0.87489   0.40292   Biso      1.000     O          -0.58296  
         O30       1.0000    0.69252   0.70268   0.25313   Biso      1.000     O          -0.688256           
         O31       1.0000    0.68714   0.55988   0.13259   Biso      1.000     O          -0.579508           
         O32       1.0000    0.81723   0.47611   0.47534   Biso      1.000     O          -0.692069           
         O33       1.0000    0.65019   0.39805   0.53411   Biso      1.000     O          -0.579152           
         O34       1.0000    0.65171   0.42058   0.30339   Biso      1.000     O          -0.685203           
         O35       1.0000    0.46310   0.99828   0.13788   Biso      1.000     O          -0.576599           
         O36       1.0000    0.48572   0.38951   0.38031   Biso      1.000     O          -0.567673           
         O37       1.0000    0.15171   0.07942   0.80339   Biso      1.000     O          -0.685204           
         O38       1.0000    0.15019   0.10195   0.03411   Biso      1.000     O          -0.579152           
         O39       1.0000    0.31723   0.02389   0.97534   Biso      1.000     O          -0.692069           
         O40       1.0000    0.18714   0.94012   0.63259   Biso      1.000     O          -0.579508           
         O41       1.0000    0.19252   0.79732   0.75313   Biso      1.000     O          -0.688256           
         O42       1.0000    0.10992   0.62511   0.90292   Biso      1.000     O          -0.58296  
         O43       1.0000    0.10014   0.84726   0.93667   Biso      1.000     O          -0.683863           
         O44       1.0000    0.48163   0.79229   0.99604   Biso      1.000     O          -0.571181           
         O45       1.0000    0.34278   0.74187   0.88954   Biso      1.000     O          -0.682405           
         O46       1.0000    0.53690   0.00172   0.86212   Biso      1.000     O          -0.576599           
         O47       1.0000    0.98572   0.11049   0.88031   Biso      1.000     O          -0.567673           
         O48       1.0000    0.63109   0.99625   0.21982   Biso      1.000     O          -0.688771 