
##########################################################################
#               Crystallographic Information Format file
#               Produced by PyCifRW module
#
#  This is a CIF file.  CIF has been adopted by the International
#  Union of Crystallography as the standard for data archiving and
#  transmission.
#
#  For information on this file format, follow the CIF links at
#  http://www.iucr.org
##########################################################################

data_image0

_cell_length_a                          9.8339
_cell_length_b                          11.279
_cell_length_c                          14.766
_cell_angle_alpha                       91.565
_cell_angle_beta                        90
_cell_angle_gamma                       90
_symmetry_space_group_name_H-M          'P 1'
_symmetry_int_tables_number             1
loop_
  _symmetry_equiv_pos_as_xyz
         'x, y, z' 
loop_
  _atom_site_label
  _atom_site_occupancy
  _atom_site_fract_x
  _atom_site_fract_y
  _atom_site_fract_z
  _atom_site_thermal_displace_type
  _atom_site_B_iso_or_equiv
  _atom_site_type_symbol
  _atom_site_charge
         C1        1.0000    0.14304   0.05075   0.82073   Biso      1.000     C          0.559587  
         C2        1.0000    0.66426   0.67277   0.16931   Biso      1.000     C          0.565453  
         C3        1.0000    0.77291   0.56471   0.43781   Biso      1.000     C          0.566712  
         C4        1.0000    0.78658   0.92266   0.44530   Biso      1.000     C          0.5635100000000001  
         C5        1.0000    0.47637   0.98165   0.29336   Biso      1.000     C          0.564026  
         C6        1.0000    0.85696   0.94925   0.17927   Biso      1.000     C          0.559587  
         C7        1.0000    0.89744   0.74077   0.97033   Biso      1.000     C          0.567327  
         C8        1.0000    0.16426   0.82723   0.33069   Biso      1.000     C          0.565453  
         C9        1.0000    0.27291   0.93529   0.06219   Biso      1.000     C          0.566712  
         C10       1.0000    0.28658   0.57734   0.05470   Biso      1.000     C          0.5635100000000001  
         C11       1.0000    0.97637   0.51835   0.20664   Biso      1.000     C          0.564026  
         C12       1.0000    0.39744   0.75923   0.52967   Biso      1.000     C          0.567327  
         C13       1.0000    0.35696   0.55075   0.32073   Biso      1.000     C          0.559587  
         C14       1.0000    0.83574   0.17277   0.66931   Biso      1.000     C          0.565453  
         C15       1.0000    0.64304   0.44925   0.67927   Biso      1.000     C          0.559587  
         C16       1.0000    0.60256   0.24077   0.47033   Biso      1.000     C          0.567327  
         C17       1.0000    0.33574   0.32723   0.83069   Biso      1.000     C          0.565453  
         C18       1.0000    0.22709   0.43529   0.56219   Biso      1.000     C          0.566712  
         C19       1.0000    0.21342   0.07734   0.55470   Biso      1.000     C          0.5635100000000001  
         C20       1.0000    0.52363   0.01835   0.70664   Biso      1.000     C          0.564026  
         C21       1.0000    0.10256   0.25923   0.02967   Biso      1.000     C          0.567327  
         C22       1.0000    0.72709   0.06471   0.93781   Biso      1.000     C          0.566712  
         C23       1.0000    0.02363   0.48165   0.79336   Biso      1.000     C          0.564026  
         C24       1.0000    0.71342   0.42266   0.94530   Biso      1.000     C          0.5635100000000001  
         H1        1.0000    0.26610   0.35810   0.86920   Biso      1.000     H          0.027204000000000002          
         H2        1.0000    0.66170   0.19570   0.43190   Biso      1.000     H          0.027979  
         H3        1.0000    0.38060   0.55910   0.04900   Biso      1.000     H          0.030777999999999996          
         H4        1.0000    0.20780   0.49870   0.52310   Biso      1.000     H          0.029632  
         H5        1.0000    0.71070   0.47620   0.72090   Biso      1.000     H          0.028372  
         H6        1.0000    0.11940   0.05910   0.54900   Biso      1.000     H          0.030777999999999996          
         H7        1.0000    0.54850   0.97540   0.75860   Biso      1.000     H          0.032559  
         H8        1.0000    0.21070   0.02380   0.77910   Biso      1.000     H          0.028372  
         H9        1.0000    0.29220   0.99870   0.02310   Biso      1.000     H          0.029632  
         H10       1.0000    0.23390   0.85810   0.36920   Biso      1.000     H          0.027204000000000002          
         H11       1.0000    0.83830   0.69570   0.93190   Biso      1.000     H          0.027979  
         H12       1.0000    0.78930   0.97620   0.22090   Biso      1.000     H          0.028373000000000002          
         H13       1.0000    0.45150   0.02460   0.24140   Biso      1.000     H          0.032559  
         H14       1.0000    0.88060   0.94090   0.45100   Biso      1.000     H          0.030777  
         H15       1.0000    0.95150   0.47540   0.25860   Biso      1.000     H          0.032559  
         H16       1.0000    0.79220   0.50130   0.47690   Biso      1.000     H          0.029632  
         H17       1.0000    0.33830   0.80430   0.56810   Biso      1.000     H          0.027979  
         H18       1.0000    0.04850   0.52460   0.74140   Biso      1.000     H          0.032559  
         H19       1.0000    0.61940   0.44090   0.95100   Biso      1.000     H          0.030777  
         H20       1.0000    0.70780   0.00130   0.97690   Biso      1.000     H          0.029632  
         H21       1.0000    0.76610   0.14190   0.63080   Biso      1.000     H          0.027204000000000002          
         H22       1.0000    0.16170   0.30430   0.06810   Biso      1.000     H          0.027979  
         H23       1.0000    0.73390   0.64190   0.13080   Biso      1.000     H          0.027204000000000002          
         H24       1.0000    0.28930   0.52380   0.27910   Biso      1.000     H          0.028373000000000002          
         Mg1       1.0000    0.07498   0.75674   0.13493   Biso      1.000     Mg          1.3478459999999999  
         Mg2       1.0000    0.00000   0.00000   0.00000   Biso      1.000     Mg          1.34735   
         Mg3       1.0000    0.50000   0.50000   0.50000   Biso      1.000     Mg          1.34735   
         Mg4       1.0000    0.57498   0.74326   0.36507   Biso      1.000     Mg          1.3478459999999999  
         Mg5       1.0000    0.38305   0.76020   0.19398   Biso      1.000     Mg          1.330282  
         Mg6       1.0000    0.92502   0.24326   0.86507   Biso      1.000     Mg          1.3478459999999999  
         Mg7       1.0000    0.11695   0.26020   0.69398   Biso      1.000     Mg          1.330282  
         Mg8       1.0000    0.88305   0.73980   0.30602   Biso      1.000     Mg          1.330282  
         Mg9       1.0000    0.61695   0.23980   0.80602   Biso      1.000     Mg          1.330282  
         Mg10      1.0000    0.00000   0.50000   0.00000   Biso      1.000     Mg          1.339086  
         Mg11      1.0000    0.50000   0.00000   0.50000   Biso      1.000     Mg          1.339086  
         Mg12      1.0000    0.42502   0.25674   0.63493   Biso      1.000     Mg          1.3478459999999999  
         O1        1.0000    0.00580   0.53938   0.86466   Biso      1.000     O          -0.57457  
         O2        1.0000    0.10367   0.15042   0.03717   Biso      1.000     O          -0.577006           
         O3        1.0000    0.74711   0.34203   0.88678   Biso      1.000     O          -0.685125           
         O4        1.0000    0.79325   0.47868   0.99500   Biso      1.000     O          -0.571671           
         O5        1.0000    0.85055   0.09979   0.93410   Biso      1.000     O          -0.687511           
         O6        1.0000    0.63027   0.10589   0.89509   Biso      1.000     O          -0.582781           
         O7        1.0000    0.80530   0.19191   0.75232   Biso      1.000     O          -0.6878770000000001           
         O8        1.0000    0.94825   0.19089   0.63433   Biso      1.000     O          -0.5786359999999999           
         O9        1.0000    0.02833   0.31654   0.97435   Biso      1.000     O          -0.694994           
         O10       1.0000    0.08614   0.15027   0.80524   Biso      1.000     O          -0.68637  
         O11       1.0000    0.29325   0.02132   0.50500   Biso      1.000     O          -0.571671           
         O12       1.0000    0.51166   0.13033   0.71668   Biso      1.000     O          -0.694299           
         O13       1.0000    0.50580   0.96062   0.63534   Biso      1.000     O          -0.57457  
         O14       1.0000    0.24711   0.15797   0.61322   Biso      1.000     O          -0.685125           
         O15       1.0000    0.01166   0.36967   0.78332   Biso      1.000     O          -0.694299           
         O16       1.0000    0.35055   0.40021   0.56590   Biso      1.000     O          -0.687511           
         O17       1.0000    0.13027   0.39411   0.60491   Biso      1.000     O          -0.582781           
         O18       1.0000    0.30530   0.30809   0.74768   Biso      1.000     O          -0.6878770000000001           
         O19       1.0000    0.44825   0.30911   0.86567   Biso      1.000     O          -0.5786359999999999           
         O20       1.0000    0.52833   0.18346   0.52565   Biso      1.000     O          -0.694994           
         O21       1.0000    0.60367   0.34958   0.46283   Biso      1.000     O          -0.577005           
         O22       1.0000    0.11767   0.98671   0.88511   Biso      1.000     O          -0.563646           
         O23       1.0000    0.38233   0.48671   0.38511   Biso      1.000     O          -0.563646           
         O24       1.0000    0.69470   0.69191   0.25232   Biso      1.000     O          -0.6878770000000001           
         O25       1.0000    0.39633   0.65042   0.53717   Biso      1.000     O          -0.577005           
         O26       1.0000    0.58614   0.34973   0.69476   Biso      1.000     O          -0.68637  
         O27       1.0000    0.98834   0.63033   0.21668   Biso      1.000     O          -0.694299           
         O28       1.0000    0.99420   0.46062   0.13534   Biso      1.000     O          -0.57457  
         O29       1.0000    0.25289   0.65797   0.11322   Biso      1.000     O          -0.685125           
         O30       1.0000    0.20675   0.52132   0.00500   Biso      1.000     O          -0.571671           
         O31       1.0000    0.14945   0.90021   0.06590   Biso      1.000     O          -0.687511           
         O32       1.0000    0.36973   0.89411   0.10491   Biso      1.000     O          -0.582781           
         O33       1.0000    0.19470   0.80809   0.24768   Biso      1.000     O          -0.6878770000000001           
         O34       1.0000    0.05175   0.80911   0.36567   Biso      1.000     O          -0.5786359999999999           
         O35       1.0000    0.97167   0.68346   0.02565   Biso      1.000     O          -0.694994           
         O36       1.0000    0.89633   0.84958   0.96283   Biso      1.000     O          -0.577005           
         O37       1.0000    0.91386   0.84973   0.19476   Biso      1.000     O          -0.68637  
         O38       1.0000    0.88233   0.01329   0.11489   Biso      1.000     O          -0.563646           
         O39       1.0000    0.48834   0.86967   0.28332   Biso      1.000     O          -0.694299           
         O40       1.0000    0.49420   0.03938   0.36466   Biso      1.000     O          -0.57457  
         O41       1.0000    0.75289   0.84203   0.38678   Biso      1.000     O          -0.685125           
         O42       1.0000    0.70675   0.97868   0.49500   Biso      1.000     O          -0.571671           
         O43       1.0000    0.64945   0.59979   0.43410   Biso      1.000     O          -0.687511           
         O44       1.0000    0.86973   0.60589   0.39509   Biso      1.000     O          -0.582781           
         O45       1.0000    0.55175   0.69089   0.13433   Biso      1.000     O          -0.5786359999999999           
         O46       1.0000    0.47167   0.81654   0.47435   Biso      1.000     O          -0.694994           
         O47       1.0000    0.41386   0.65027   0.30524   Biso      1.000     O          -0.68637  
         O48       1.0000    0.61767   0.51329   0.61489   Biso      1.000     O          -0.563646 