
##########################################################################
#               Crystallographic Information Format file
#               Produced by PyCifRW module
#
#  This is a CIF file.  CIF has been adopted by the International
#  Union of Crystallography as the standard for data archiving and
#  transmission.
#
#  For information on this file format, follow the CIF links at
#  http://www.iucr.org
##########################################################################

data_image0

_cell_length_a                          9.8184
_cell_length_b                          11.2962
_cell_length_c                          14.5847
_cell_angle_alpha                       91.662
_cell_angle_beta                        90
_cell_angle_gamma                       90
_symmetry_space_group_name_H-M          'P 1'
_symmetry_int_tables_number             1
loop_
  _symmetry_equiv_pos_as_xyz
         'x, y, z' 
loop_
  _atom_site_label
  _atom_site_occupancy
  _atom_site_fract_x
  _atom_site_fract_y
  _atom_site_fract_z
  _atom_site_thermal_displace_type
  _atom_site_B_iso_or_equiv
  _atom_site_type_symbol
  _atom_site_charge
         C1        1.0000    0.63520   0.45010   0.68333   Biso      1.000     C          0.5653819999999999  
         C2        1.0000    0.17070   0.82970   0.33079   Biso      1.000     C          0.569298  
         C3        1.0000    0.27610   0.93130   0.05692   Biso      1.000     C          0.5679960000000001  
         C4        1.0000    0.28740   0.57340   0.05455   Biso      1.000     C          0.566033  
         C5        1.0000    0.97950   0.51940   0.20920   Biso      1.000     C          0.561465  
         C6        1.0000    0.36480   0.54990   0.31667   Biso      1.000     C          0.5653819999999999  
         C7        1.0000    0.40020   0.75930   0.53025   Biso      1.000     C          0.5705180000000001  
         C8        1.0000    0.67070   0.67030   0.16921   Biso      1.000     C          0.569298  
         C9        1.0000    0.77610   0.56870   0.44308   Biso      1.000     C          0.5679960000000001  
         C10       1.0000    0.78740   0.92660   0.44545   Biso      1.000     C          0.566033  
         C11       1.0000    0.47950   0.98060   0.29080   Biso      1.000     C          0.561465  
         C12       1.0000    0.90020   0.74070   0.96975   Biso      1.000     C          0.570519  
         C13       1.0000    0.86480   0.95010   0.18333   Biso      1.000     C          0.5653819999999999  
         C14       1.0000    0.32930   0.32970   0.83079   Biso      1.000     C          0.569297  
         C15       1.0000    0.13520   0.04990   0.81667   Biso      1.000     C          0.5653819999999999  
         C16       1.0000    0.09980   0.25930   0.03025   Biso      1.000     C          0.5705180000000001  
         C17       1.0000    0.82930   0.17030   0.66921   Biso      1.000     C          0.569298  
         C18       1.0000    0.72390   0.06870   0.94308   Biso      1.000     C          0.5679960000000001  
         C19       1.0000    0.71260   0.42660   0.94545   Biso      1.000     C          0.566033  
         C20       1.0000    0.02050   0.48060   0.79080   Biso      1.000     C          0.561465  
         C21       1.0000    0.59980   0.24070   0.46975   Biso      1.000     C          0.570519  
         C22       1.0000    0.22390   0.43130   0.55692   Biso      1.000     C          0.5679960000000001  
         C23       1.0000    0.52050   0.01940   0.70920   Biso      1.000     C          0.561465  
         C24       1.0000    0.21260   0.07340   0.55455   Biso      1.000     C          0.566033  
         H1        1.0000    0.75900   0.13930   0.63070   Biso      1.000     H          0.026775999999999998          
         H2        1.0000    0.15740   0.30470   0.07000   Biso      1.000     H          0.024506  
         H3        1.0000    0.88120   0.94640   0.45110   Biso      1.000     H          0.028314999999999996          
         H4        1.0000    0.70490   0.00580   0.98300   Biso      1.000     H          0.028308999999999997          
         H5        1.0000    0.20010   0.02240   0.77270   Biso      1.000     H          0.023999  
         H6        1.0000    0.61880   0.44640   0.95110   Biso      1.000     H          0.028316  
         H7        1.0000    0.04500   0.52330   0.73810   Biso      1.000     H          0.033983  
         H8        1.0000    0.70010   0.47760   0.72730   Biso      1.000     H          0.023999  
         H9        1.0000    0.79510   0.50580   0.48300   Biso      1.000     H          0.028308999999999997          
         H10       1.0000    0.74100   0.63930   0.13070   Biso      1.000     H          0.026775999999999998          
         H11       1.0000    0.34260   0.80470   0.57000   Biso      1.000     H          0.024506  
         H12       1.0000    0.29990   0.52240   0.27270   Biso      1.000     H          0.024     
         H13       1.0000    0.95500   0.47670   0.26190   Biso      1.000     H          0.033983  
         H14       1.0000    0.38120   0.55360   0.04890   Biso      1.000     H          0.028314  
         H15       1.0000    0.45500   0.02330   0.23810   Biso      1.000     H          0.033983  
         H16       1.0000    0.29510   0.99420   0.01700   Biso      1.000     H          0.028308999999999997          
         H17       1.0000    0.84260   0.69530   0.93000   Biso      1.000     H          0.024506  
         H18       1.0000    0.54500   0.97670   0.76190   Biso      1.000     H          0.033983  
         H19       1.0000    0.11880   0.05360   0.54890   Biso      1.000     H          0.028314  
         H20       1.0000    0.20490   0.49420   0.51700   Biso      1.000     H          0.028308999999999997          
         H21       1.0000    0.25900   0.36070   0.86930   Biso      1.000     H          0.026775999999999998          
         H22       1.0000    0.65740   0.19530   0.43000   Biso      1.000     H          0.024506  
         H23       1.0000    0.24100   0.86070   0.36930   Biso      1.000     H          0.026775999999999998          
         H24       1.0000    0.79990   0.97760   0.22730   Biso      1.000     H          0.024     
         Mg1       1.0000    0.57960   0.74355   0.36489   Biso      1.000     Mg          1.34717   
         Mg2       1.0000    0.50000   0.50000   0.50000   Biso      1.000     Mg          1.349004  
         Mg3       1.0000    0.00000   0.00000   0.00000   Biso      1.000     Mg          1.349004  
         Mg4       1.0000    0.07960   0.75645   0.13511   Biso      1.000     Mg          1.347171  
         Mg5       1.0000    0.88886   0.74017   0.30926   Biso      1.000     Mg          1.3319459999999999  
         Mg6       1.0000    0.42040   0.25645   0.63511   Biso      1.000     Mg          1.347171  
         Mg7       1.0000    0.61114   0.24017   0.80926   Biso      1.000     Mg          1.3319459999999999  
         Mg8       1.0000    0.38886   0.75983   0.19074   Biso      1.000     Mg          1.3319459999999999  
         Mg9       1.0000    0.11114   0.25983   0.69074   Biso      1.000     Mg          1.3319459999999999  
         Mg10      1.0000    0.50000   0.00000   0.50000   Biso      1.000     Mg          1.338867  
         Mg11      1.0000    0.00000   0.50000   0.00000   Biso      1.000     Mg          1.338867  
         Mg12      1.0000    0.92040   0.24355   0.86489   Biso      1.000     Mg          1.347171  
         O1        1.0000    0.50513   0.96216   0.63663   Biso      1.000     O          -0.573856           
         O2        1.0000    0.60325   0.34929   0.46306   Biso      1.000     O          -0.579404           
         O3        1.0000    0.24386   0.15593   0.61252   Biso      1.000     O          -0.68519  
         O4        1.0000    0.29308   0.01707   0.50534   Biso      1.000     O          -0.570738           
         O5        1.0000    0.34790   0.39925   0.56356   Biso      1.000     O          -0.684765           
         O6        1.0000    0.12614   0.38827   0.59736   Biso      1.000     O          -0.5839439999999999           
         O7        1.0000    0.29929   0.30816   0.74703   Biso      1.000     O          -0.689623           
         O8        1.0000    0.44223   0.31390   0.86643   Biso      1.000     O          -0.58067  
         O9        1.0000    0.52563   0.18394   0.52526   Biso      1.000     O          -0.693728           
         O10       1.0000    0.58114   0.34969   0.69622   Biso      1.000     O          -0.6843279999999999           
         O11       1.0000    0.79308   0.48293   0.99466   Biso      1.000     O          -0.570738           
         O12       1.0000    0.00634   0.36918   0.78080   Biso      1.000     O          -0.692584           
         O13       1.0000    0.00513   0.53784   0.86337   Biso      1.000     O          -0.573855           
         O14       1.0000    0.74386   0.34407   0.88748   Biso      1.000     O          -0.68519  
         O15       1.0000    0.50634   0.13082   0.71920   Biso      1.000     O          -0.692584           
         O16       1.0000    0.84790   0.10075   0.93644   Biso      1.000     O          -0.684765           
         O17       1.0000    0.62614   0.11173   0.90264   Biso      1.000     O          -0.5839439999999999           
         O18       1.0000    0.79929   0.19184   0.75297   Biso      1.000     O          -0.689623           
         O19       1.0000    0.94223   0.18610   0.63357   Biso      1.000     O          -0.58067  
         O20       1.0000    0.02563   0.31606   0.97474   Biso      1.000     O          -0.693728           
         O21       1.0000    0.10325   0.15071   0.03694   Biso      1.000     O          -0.579404           
         O22       1.0000    0.61074   0.51512   0.61867   Biso      1.000     O          -0.570805           
         O23       1.0000    0.88926   0.01512   0.11867   Biso      1.000     O          -0.570805           
         O24       1.0000    0.20071   0.80816   0.24703   Biso      1.000     O          -0.689623           
         O25       1.0000    0.89675   0.84929   0.96306   Biso      1.000     O          -0.579404           
         O26       1.0000    0.08114   0.15031   0.80378   Biso      1.000     O          -0.6843279999999999           
         O27       1.0000    0.49366   0.86918   0.28080   Biso      1.000     O          -0.692584           
         O28       1.0000    0.49487   0.03784   0.36337   Biso      1.000     O          -0.573856           
         O29       1.0000    0.75614   0.84407   0.38748   Biso      1.000     O          -0.68519  
         O30       1.0000    0.70692   0.98293   0.49466   Biso      1.000     O          -0.570738           
         O31       1.0000    0.65210   0.60075   0.43644   Biso      1.000     O          -0.684765           
         O32       1.0000    0.87386   0.61173   0.40264   Biso      1.000     O          -0.5839439999999999           
         O33       1.0000    0.70071   0.69184   0.25297   Biso      1.000     O          -0.689623           
         O34       1.0000    0.55777   0.68610   0.13357   Biso      1.000     O          -0.58067  
         O35       1.0000    0.47437   0.81606   0.47474   Biso      1.000     O          -0.693728           
         O36       1.0000    0.39675   0.65071   0.53694   Biso      1.000     O          -0.579404           
         O37       1.0000    0.41886   0.65031   0.30378   Biso      1.000     O          -0.6843279999999999           
         O38       1.0000    0.38926   0.48488   0.38133   Biso      1.000     O          -0.570805           
         O39       1.0000    0.99366   0.63082   0.21920   Biso      1.000     O          -0.692584           
         O40       1.0000    0.99487   0.46216   0.13663   Biso      1.000     O          -0.573855           
         O41       1.0000    0.25614   0.65593   0.11252   Biso      1.000     O          -0.68519  
         O42       1.0000    0.20692   0.51707   0.00534   Biso      1.000     O          -0.570738           
         O43       1.0000    0.15210   0.89925   0.06356   Biso      1.000     O          -0.684765           
         O44       1.0000    0.37386   0.88827   0.09736   Biso      1.000     O          -0.5839439999999999           
         O45       1.0000    0.05777   0.81390   0.36643   Biso      1.000     O          -0.58067  
         O46       1.0000    0.97437   0.68394   0.02526   Biso      1.000     O          -0.693728           
         O47       1.0000    0.91886   0.84969   0.19622   Biso      1.000     O          -0.6843279999999999           
         O48       1.0000    0.11074   0.98488   0.88133   Biso      1.000     O          -0.570805 