
##########################################################################
#               Crystallographic Information Format file
#               Produced by PyCifRW module
#
#  This is a CIF file.  CIF has been adopted by the International
#  Union of Crystallography as the standard for data archiving and
#  transmission.
#
#  For information on this file format, follow the CIF links at
#  http://www.iucr.org
##########################################################################

data_image0

_cell_length_a                          9.9047
_cell_length_b                          11.4007
_cell_length_c                          14.5357
_cell_angle_alpha                       91.317
_cell_angle_beta                        90
_cell_angle_gamma                       90
_symmetry_space_group_name_H-M          'P 1'
_symmetry_int_tables_number             1
loop_
  _symmetry_equiv_pos_as_xyz
         'x, y, z' 
loop_
  _atom_site_label
  _atom_site_occupancy
  _atom_site_fract_x
  _atom_site_fract_y
  _atom_site_fract_z
  _atom_site_thermal_displace_type
  _atom_site_B_iso_or_equiv
  _atom_site_type_symbol
  _atom_site_charge
         C1        1.0000    0.64104   0.44285   0.68046   Biso      1.000     C          0.562729  
         C2        1.0000    0.17057   0.81934   0.33383   Biso      1.000     C          0.56506   
         C3        1.0000    0.27126   0.93924   0.06348   Biso      1.000     C          0.560683  
         C4        1.0000    0.28649   0.57957   0.05002   Biso      1.000     C          0.564836  
         C5        1.0000    0.98288   0.51926   0.20989   Biso      1.000     C          0.562175  
         C6        1.0000    0.35896   0.55715   0.31954   Biso      1.000     C          0.562729  
         C7        1.0000    0.40410   0.75920   0.53305   Biso      1.000     C          0.565144  
         C8        1.0000    0.67057   0.68066   0.16617   Biso      1.000     C          0.56506   
         C9        1.0000    0.77126   0.56076   0.43652   Biso      1.000     C          0.560683  
         C10       1.0000    0.78649   0.92043   0.44998   Biso      1.000     C          0.564836  
         C11       1.0000    0.48288   0.98074   0.29011   Biso      1.000     C          0.562176  
         C12       1.0000    0.90410   0.74080   0.96695   Biso      1.000     C          0.565144  
         C13       1.0000    0.85896   0.94285   0.18046   Biso      1.000     C          0.562729  
         C14       1.0000    0.32943   0.31934   0.83383   Biso      1.000     C          0.56506   
         C15       1.0000    0.14104   0.05715   0.81954   Biso      1.000     C          0.562729  
         C16       1.0000    0.09590   0.25920   0.03305   Biso      1.000     C          0.565144  
         C17       1.0000    0.82943   0.18066   0.66617   Biso      1.000     C          0.56506   
         C18       1.0000    0.72874   0.06076   0.93652   Biso      1.000     C          0.560683  
         C19       1.0000    0.71351   0.42043   0.94998   Biso      1.000     C          0.564836  
         C20       1.0000    0.01712   0.48074   0.79011   Biso      1.000     C          0.562176  
         C21       1.0000    0.59590   0.24080   0.46695   Biso      1.000     C          0.565144  
         C22       1.0000    0.22874   0.43924   0.56348   Biso      1.000     C          0.560683  
         C23       1.0000    0.51712   0.01926   0.70989   Biso      1.000     C          0.562176  
         C24       1.0000    0.21351   0.07957   0.55002   Biso      1.000     C          0.564836  
         H1        1.0000    0.76030   0.15540   0.62720   Biso      1.000     H          0.026229  
         H2        1.0000    0.15220   0.30230   0.07230   Biso      1.000     H          0.028274  
         H3        1.0000    0.87750   0.93770   0.45810   Biso      1.000     H          0.029916  
         H4        1.0000    0.71310   0.99480   0.97150   Biso      1.000     H          0.029065  
         H5        1.0000    0.20830   0.03350   0.77850   Biso      1.000     H          0.025393  
         H6        1.0000    0.62250   0.43770   0.95810   Biso      1.000     H          0.029916  
         H7        1.0000    0.03700   0.52240   0.73760   Biso      1.000     H          0.033041  
         H8        1.0000    0.70830   0.46650   0.72150   Biso      1.000     H          0.025393  
         H9        1.0000    0.78690   0.49480   0.47150   Biso      1.000     H          0.029065  
         H10       1.0000    0.73970   0.65540   0.12720   Biso      1.000     H          0.026229  
         H11       1.0000    0.34780   0.80230   0.57230   Biso      1.000     H          0.028274  
         H12       1.0000    0.29170   0.53350   0.27850   Biso      1.000     H          0.025393  
         H13       1.0000    0.96300   0.47760   0.26240   Biso      1.000     H          0.033041  
         H14       1.0000    0.37750   0.56230   0.04190   Biso      1.000     H          0.029915  
         H15       1.0000    0.46300   0.02240   0.23760   Biso      1.000     H          0.033041  
         H16       1.0000    0.28690   0.00520   0.02850   Biso      1.000     H          0.029065  
         H17       1.0000    0.84780   0.69770   0.92770   Biso      1.000     H          0.028274  
         H18       1.0000    0.53700   0.97760   0.76240   Biso      1.000     H          0.033041  
         H19       1.0000    0.12250   0.06230   0.54190   Biso      1.000     H          0.029915  
         H20       1.0000    0.21310   0.50520   0.52850   Biso      1.000     H          0.029065  
         H21       1.0000    0.26030   0.34460   0.87280   Biso      1.000     H          0.026229  
         H22       1.0000    0.65220   0.19770   0.42770   Biso      1.000     H          0.028274  
         H23       1.0000    0.23970   0.84460   0.37280   Biso      1.000     H          0.026229  
         H24       1.0000    0.79170   0.96650   0.22150   Biso      1.000     H          0.025393  
         Mg1       1.0000    0.57920   0.74472   0.36509   Biso      1.000     Mg          1.345938  
         Mg2       1.0000    0.50000   0.50000   0.50000   Biso      1.000     Mg          1.348488  
         Mg3       1.0000    0.00000   0.00000   0.00000   Biso      1.000     Mg          1.348487  
         Mg4       1.0000    0.07920   0.75528   0.13491   Biso      1.000     Mg          1.345938  
         Mg5       1.0000    0.88763   0.73873   0.30959   Biso      1.000     Mg          1.329836  
         Mg6       1.0000    0.42080   0.25528   0.63491   Biso      1.000     Mg          1.345938  
         Mg7       1.0000    0.61237   0.23873   0.80959   Biso      1.000     Mg          1.329836  
         Mg8       1.0000    0.38763   0.76127   0.19041   Biso      1.000     Mg          1.329836  
         Mg9       1.0000    0.11237   0.26127   0.69041   Biso      1.000     Mg          1.329836  
         Mg10      1.0000    0.50000   0.00000   0.50000   Biso      1.000     Mg          1.33644   
         Mg11      1.0000    0.00000   0.50000   0.00000   Biso      1.000     Mg          1.33644   
         Mg12      1.0000    0.92080   0.24472   0.86509   Biso      1.000     Mg          1.345938  
         O1        1.0000    0.50310   0.96210   0.63741   Biso      1.000     O          -0.573579           
         O2        1.0000    0.59558   0.34834   0.45953   Biso      1.000     O          -0.575594           
         O3        1.0000    0.24348   0.15984   0.61001   Biso      1.000     O          -0.68699  
         O4        1.0000    0.29487   0.02347   0.50230   Biso      1.000     O          -0.567222           
         O5        1.0000    0.35019   0.40216   0.56729   Biso      1.000     O          -0.682554           
         O6        1.0000    0.12971   0.39568   0.60196   Biso      1.000     O          -0.580229           
         O7        1.0000    0.30028   0.30400   0.74879   Biso      1.000     O          -0.686602           
         O8        1.0000    0.44186   0.30352   0.86899   Biso      1.000     O          -0.579568           
         O9        1.0000    0.52476   0.18369   0.52450   Biso      1.000     O          -0.694411           
         O10       1.0000    0.57975   0.34733   0.69720   Biso      1.000     O          -0.685083           
         O11       1.0000    0.79487   0.47653   0.99770   Biso      1.000     O          -0.567221           
         O12       1.0000    0.00675   0.36979   0.78084   Biso      1.000     O          -0.69199  
         O13       1.0000    0.00310   0.53790   0.86259   Biso      1.000     O          -0.573579           
         O14       1.0000    0.74348   0.34016   0.88999   Biso      1.000     O          -0.68699  
         O15       1.0000    0.50675   0.13021   0.71916   Biso      1.000     O          -0.69199  
         O16       1.0000    0.85019   0.09784   0.93271   Biso      1.000     O          -0.682554           
         O17       1.0000    0.62971   0.10432   0.89804   Biso      1.000     O          -0.580229           
         O18       1.0000    0.80028   0.19600   0.75121   Biso      1.000     O          -0.686602           
         O19       1.0000    0.94186   0.19648   0.63101   Biso      1.000     O          -0.579568           
         O20       1.0000    0.02476   0.31631   0.97550   Biso      1.000     O          -0.694411           
         O21       1.0000    0.09558   0.15166   0.04047   Biso      1.000     O          -0.575594           
         O22       1.0000    0.61924   0.50670   0.61479   Biso      1.000     O          -0.566962           
         O23       1.0000    0.88076   0.00670   0.11479   Biso      1.000     O          -0.566962           
         O24       1.0000    0.19972   0.80400   0.24879   Biso      1.000     O          -0.686602           
         O25       1.0000    0.90442   0.84834   0.95953   Biso      1.000     O          -0.575594           
         O26       1.0000    0.07975   0.15267   0.80280   Biso      1.000     O          -0.685083           
         O27       1.0000    0.49325   0.86979   0.28084   Biso      1.000     O          -0.69199  
         O28       1.0000    0.49690   0.03790   0.36259   Biso      1.000     O          -0.573579           
         O29       1.0000    0.75652   0.84016   0.38999   Biso      1.000     O          -0.68699  
         O30       1.0000    0.70513   0.97653   0.49770   Biso      1.000     O          -0.567222           
         O31       1.0000    0.64981   0.59784   0.43271   Biso      1.000     O          -0.682554           
         O32       1.0000    0.87029   0.60432   0.39804   Biso      1.000     O          -0.580229           
         O33       1.0000    0.69972   0.69600   0.25121   Biso      1.000     O          -0.686602           
         O34       1.0000    0.55814   0.69648   0.13101   Biso      1.000     O          -0.579568           
         O35       1.0000    0.47524   0.81631   0.47550   Biso      1.000     O          -0.694411           
         O36       1.0000    0.40442   0.65166   0.54047   Biso      1.000     O          -0.575594           
         O37       1.0000    0.42025   0.65267   0.30280   Biso      1.000     O          -0.685083           
         O38       1.0000    0.38076   0.49330   0.38521   Biso      1.000     O          -0.566962           
         O39       1.0000    0.99325   0.63021   0.21916   Biso      1.000     O          -0.69199  
         O40       1.0000    0.99690   0.46210   0.13741   Biso      1.000     O          -0.573579           
         O41       1.0000    0.25652   0.65984   0.11001   Biso      1.000     O          -0.68699  
         O42       1.0000    0.20513   0.52347   0.00230   Biso      1.000     O          -0.567222           
         O43       1.0000    0.14981   0.90216   0.06729   Biso      1.000     O          -0.682554           
         O44       1.0000    0.37029   0.89568   0.10196   Biso      1.000     O          -0.580229           
         O45       1.0000    0.05814   0.80352   0.36899   Biso      1.000     O          -0.579568           
         O46       1.0000    0.97524   0.68369   0.02450   Biso      1.000     O          -0.694411           
         O47       1.0000    0.92025   0.84733   0.19720   Biso      1.000     O          -0.685083           
         O48       1.0000    0.11924   0.99330   0.88521   Biso      1.000     O          -0.566962 