
##########################################################################
#               Crystallographic Information Format file
#               Produced by PyCifRW module
#
#  This is a CIF file.  CIF has been adopted by the International
#  Union of Crystallography as the standard for data archiving and
#  transmission.
#
#  For information on this file format, follow the CIF links at
#  http://www.iucr.org
##########################################################################

data_image0

_cell_length_a                          6.804
_cell_length_b                          10.347
_cell_length_c                          11.498
_cell_angle_alpha                       68.145
_cell_angle_beta                        77.492
_cell_angle_gamma                       73.837
_symmetry_space_group_name_H-M          'P 1'
_symmetry_int_tables_number             1
loop_
  _symmetry_equiv_pos_as_xyz
         'x, y, z' 
loop_
  _atom_site_label
  _atom_site_occupancy
  _atom_site_fract_x
  _atom_site_fract_y
  _atom_site_fract_z
  _atom_site_thermal_displace_type
  _atom_site_B_iso_or_equiv
  _atom_site_type_symbol
  _atom_site_charge
         C1        1.0000    0.75950   0.09540   0.57700   Biso      1.000     C          -0.114667           
         C2        1.0000    0.24050   0.90460   0.42300   Biso      1.000     C          -0.114667           
         C3        1.0000    0.25500   0.97640   0.50140   Biso      1.000     C          -0.003334           
         C4        1.0000    0.32110   0.89820   0.61930   Biso      1.000     C          -0.117148           
         C5        1.0000    0.37540   0.74990   0.65720   Biso      1.000     C          -0.028697           
         C6        1.0000    0.45500   0.66770   0.78330   Biso      1.000     C          0.622669  
         C7        1.0000    0.20120   0.13680   0.45600   Biso      1.000     C          0.552563  
         C8        1.0000    0.24890   0.67790   0.38700   Biso      1.000     C          0.636895  
         C9        1.0000    0.12300   0.29020   0.98120   Biso      1.000     C          0.533075  
         C10       1.0000    0.62460   0.25010   0.34280   Biso      1.000     C          -0.028697           
         C11       1.0000    0.67890   0.10180   0.38070   Biso      1.000     C          -0.117148           
         C12       1.0000    0.74500   0.02360   0.49860   Biso      1.000     C          -0.003334           
         C13       1.0000    0.71160   0.24380   0.53620   Biso      1.000     C          -0.009461           
         C14       1.0000    0.63730   0.32110   0.42060   Biso      1.000     C          -0.152175           
         C15       1.0000    0.54500   0.33230   0.21670   Biso      1.000     C          0.622669  
         C16       1.0000    0.79880   0.86320   0.54400   Biso      1.000     C          0.552563  
         C17       1.0000    0.75110   0.32210   0.61300   Biso      1.000     C          0.636896  
         C18       1.0000    0.87700   0.70980   0.01880   Biso      1.000     C          0.533078  
         C19       1.0000    0.28840   0.75620   0.46380   Biso      1.000     C          -0.009461           
         C20       1.0000    0.36270   0.67890   0.57940   Biso      1.000     C          -0.152174           
         Cd1       1.0000    0.89000   0.57719   0.62964   Biso      1.000     Cd          0.951098  
         Cd2       1.0000    0.63799   0.32123   0.92237   Biso      1.000     Cd          1.02176   
         Cd3       1.0000    0.11000   0.42281   0.37036   Biso      1.000     Cd          0.951096  
         Cd4       1.0000    0.36201   0.67877   0.07763   Biso      1.000     Cd          1.021764  
         H1        1.0000    0.80800   0.80500   0.85600   Biso      1.000     H          0.348088  
         H2        1.0000    0.32910   0.94500   0.67270   Biso      1.000     H          0.126413  
         H3        1.0000    0.40360   0.58000   0.60410   Biso      1.000     H          0.114685  
         H4        1.0000    0.19880   0.95610   0.34350   Biso      1.000     H          0.125552  
         H5        1.0000    0.19200   0.19500   0.14400   Biso      1.000     H          0.348087  
         H6        1.0000    0.98700   0.20600   0.14000   Biso      1.000     H          0.345908  
         H7        1.0000    0.67090   0.05500   0.32730   Biso      1.000     H          0.126412  
         H8        1.0000    0.80120   0.04390   0.65650   Biso      1.000     H          0.125552  
         H9        1.0000    0.59640   0.42000   0.39590   Biso      1.000     H          0.114684  
         H10       1.0000    0.01300   0.79400   0.86000   Biso      1.000     H          0.345908  
         N1        1.0000    0.02630   0.65660   0.09400   Biso      1.000     N          -0.344231           
         N2        1.0000    0.70560   0.65800   0.07870   Biso      1.000     N          -0.364066           
         N3        1.0000    0.75610   0.56890   0.19380   Biso      1.000     N          -0.03237  
         N4        1.0000    0.94380   0.57070   0.20140   Biso      1.000     N          -0.050104           
         N5        1.0000    0.89120   0.80930   0.90060   Biso      1.000     N          -0.724744           
         N6        1.0000    0.10880   0.19070   0.09940   Biso      1.000     N          -0.724745           
         N7        1.0000    0.24390   0.43110   0.80620   Biso      1.000     N          -0.032383           
         N8        1.0000    0.05620   0.42930   0.79860   Biso      1.000     N          -0.050124           
         N9        1.0000    0.97370   0.34340   0.90600   Biso      1.000     N          -0.34421  
         N10       1.0000    0.29440   0.34200   0.92130   Biso      1.000     N          -0.36405  
         O1        1.0000    0.71270   0.27750   0.72840   Biso      1.000     O          -0.562497           
         O2        1.0000    0.60190   0.55760   0.79100   Biso      1.000     O          -0.616722           
         O3        1.0000    0.36570   0.71150   0.87270   Biso      1.000     O          -0.567243           
         O4        1.0000    0.20320   0.20080   0.53020   Biso      1.000     O          -0.55184  
         O5        1.0000    0.15900   0.20330   0.34650   Biso      1.000     O          -0.563731           
         O6        1.0000    0.28730   0.72250   0.27160   Biso      1.000     O          -0.562497           
         O7        1.0000    0.17940   0.56500   0.45320   Biso      1.000     O          -0.575677           
         O8        1.0000    0.39810   0.44240   0.20900   Biso      1.000     O          -0.616723           
         O9        1.0000    0.63430   0.28850   0.12730   Biso      1.000     O          -0.567243           
         O10       1.0000    0.79680   0.79920   0.46980   Biso      1.000     O          -0.55184  
         O11       1.0000    0.84100   0.79670   0.65350   Biso      1.000     O          -0.563731           
         O12       1.0000    0.82060   0.43500   0.54680   Biso      1.000     O          -0.575677 