
##########################################################################
#               Crystallographic Information Format file
#               Produced by PyCifRW module
#
#  This is a CIF file.  CIF has been adopted by the International
#  Union of Crystallography as the standard for data archiving and
#  transmission.
#
#  For information on this file format, follow the CIF links at
#  http://www.iucr.org
##########################################################################

data_image0

_cell_length_a                          7.707
_cell_length_b                          9.686
_cell_length_c                          10.57
_cell_angle_alpha                       106.65
_cell_angle_beta                        105.252
_cell_angle_gamma                       100.689
_symmetry_space_group_name_H-M          'P 1'
_symmetry_int_tables_number             1
loop_
  _symmetry_equiv_pos_as_xyz
         'x, y, z' 
loop_
  _atom_site_label
  _atom_site_occupancy
  _atom_site_fract_x
  _atom_site_fract_y
  _atom_site_fract_z
  _atom_site_thermal_displace_type
  _atom_site_B_iso_or_equiv
  _atom_site_type_symbol
  _atom_site_charge
         C1        1.0000    0.42710   0.71270   0.39520   Biso      1.000     C          0.715574  
         C2        1.0000    0.25990   0.44780   0.06610   Biso      1.000     C          -0.248492           
         C3        1.0000    0.31000   0.45890   0.20640   Biso      1.000     C          0.171136  
         C4        1.0000    0.47780   0.27200   0.15420   Biso      1.000     C          0.178918  
         C5        1.0000    0.41800   0.37050   0.24950   Biso      1.000     C          -0.24283  
         C6        1.0000    0.26250   0.57250   0.31120   Biso      1.000     C          -0.385269           
         C7        1.0000    0.25750   0.33490   0.81830   Biso      1.000     C          -0.396023           
         C8        1.0000    0.08670   0.20930   0.72650   Biso      1.000     C          0.701573  
         C9        1.0000    0.61410   0.19010   0.20440   Biso      1.000     C          -0.408993           
         C10       1.0000    0.55560   0.09250   0.28600   Biso      1.000     C          0.735187  
         C11       1.0000    0.69000   0.54110   0.79360   Biso      1.000     C          0.171135  
         C12       1.0000    0.74010   0.55220   0.93390   Biso      1.000     C          -0.24849  
         C13       1.0000    0.68630   0.64990   0.03010   Biso      1.000     C          0.188188  
         C14       1.0000    0.57480   0.73670   0.98480   Biso      1.000     C          -0.252904           
         C15       1.0000    0.52220   0.72800   0.84580   Biso      1.000     C          0.178919  
         C16       1.0000    0.58200   0.62950   0.75050   Biso      1.000     C          -0.24283  
         C17       1.0000    0.73750   0.42750   0.68880   Biso      1.000     C          -0.385268           
         C18       1.0000    0.57290   0.28730   0.60480   Biso      1.000     C          0.715573  
         C19       1.0000    0.74250   0.66510   0.18170   Biso      1.000     C          -0.396023           
         C20       1.0000    0.91330   0.79070   0.27350   Biso      1.000     C          0.701573  
         C21       1.0000    0.38590   0.80990   0.79560   Biso      1.000     C          -0.408994           
         C22       1.0000    0.44440   0.90750   0.71400   Biso      1.000     C          0.735186  
         C23       1.0000    0.31370   0.35010   0.96990   Biso      1.000     C          0.188188  
         C24       1.0000    0.42520   0.26330   0.01520   Biso      1.000     C          -0.252904           
         Gd1       1.0000    0.75327   0.96817   0.54917   Biso      1.000     Gd          2.076495  
         Gd2       1.0000    0.24673   0.03183   0.45083   Biso      1.000     Gd          2.076495  
         H1        1.0000    0.36490   0.87480   0.87810   Biso      1.000     H          0.156943  
         H2        1.0000    0.18710   0.50880   0.03590   Biso      1.000     H          0.121013  
         H3        1.0000    0.46530   0.19780   0.95040   Biso      1.000     H          0.12692   
         H4        1.0000    0.26460   0.73470   0.73500   Biso      1.000     H          0.152866  
         H5        1.0000    0.15470   0.60110   0.26170   Biso      1.000     H          0.149143  
         H6        1.0000    0.22460   0.52720   0.37610   Biso      1.000     H          0.159843  
         H7        1.0000    0.36270   0.31940   0.78400   Biso      1.000     H          0.147356  
         H8        1.0000    0.23530   0.43000   0.81040   Biso      1.000     H          0.159594  
         H9        1.0000    0.63510   0.12520   0.12190   Biso      1.000     H          0.156942  
         H10       1.0000    0.45220   0.37620   0.34440   Biso      1.000     H          0.122407  
         H11       1.0000    0.81290   0.49120   0.96410   Biso      1.000     H          0.121012  
         H12       1.0000    0.53470   0.80220   0.04960   Biso      1.000     H          0.126919  
         H13       1.0000    0.54780   0.62380   0.65560   Biso      1.000     H          0.122407  
         H14       1.0000    0.84530   0.39890   0.73830   Biso      1.000     H          0.149142  
         H15       1.0000    0.77540   0.47280   0.62390   Biso      1.000     H          0.159843  
         H16       1.0000    0.63730   0.68060   0.21600   Biso      1.000     H          0.147356  
         H17       1.0000    0.76470   0.57000   0.18960   Biso      1.000     H          0.159593  
         H18       1.0000    0.73540   0.26530   0.26500   Biso      1.000     H          0.152866  
         O1        1.0000    0.04190   0.82870   0.22740   Biso      1.000     O          -0.601434           
         O2        1.0000    0.93330   0.86060   0.40330   Biso      1.000     O          -0.777072           
         O3        1.0000    0.41190   0.29880   0.55570   Biso      1.000     O          -0.63112  
         O4        1.0000    0.59670   0.15700   0.58420   Biso      1.000     O          -0.761555           
         O5        1.0000    0.68540   0.04030   0.34280   Biso      1.000     O          -0.705432           
         O6        1.0000    0.58810   0.70120   0.44430   Biso      1.000     O          -0.63112  
         O7        1.0000    0.95810   0.17130   0.77260   Biso      1.000     O          -0.601434           
         O8        1.0000    0.06670   0.13940   0.59670   Biso      1.000     O          -0.777072           
         O9        1.0000    0.40330   0.84300   0.41580   Biso      1.000     O          -0.761555           
         O10       1.0000    0.60560   0.93330   0.71100   Biso      1.000     O          -0.652028           
         O11       1.0000    0.39440   0.06670   0.28900   Biso      1.000     O          -0.652028           
         O12       1.0000    0.31460   0.95970   0.65720   Biso      1.000     O          -0.705432 