
##########################################################################
#               Crystallographic Information Format file
#               Produced by PyCifRW module
#
#  This is a CIF file.  CIF has been adopted by the International
#  Union of Crystallography as the standard for data archiving and
#  transmission.
#
#  For information on this file format, follow the CIF links at
#  http://www.iucr.org
##########################################################################

data_image0

_cell_length_a                          7.648
_cell_length_b                          9.676
_cell_length_c                          10.562
_cell_angle_alpha                       106.672
_cell_angle_beta                        105.283
_cell_angle_gamma                       100.706
_symmetry_space_group_name_H-M          'P 1'
_symmetry_int_tables_number             1
loop_
  _symmetry_equiv_pos_as_xyz
         'x, y, z' 
loop_
  _atom_site_label
  _atom_site_occupancy
  _atom_site_fract_x
  _atom_site_fract_y
  _atom_site_fract_z
  _atom_site_thermal_displace_type
  _atom_site_B_iso_or_equiv
  _atom_site_type_symbol
  _atom_site_charge
         C1        1.0000    0.42650   0.71500   0.39440   Biso      1.000     C          0.724444  
         C2        1.0000    0.25930   0.44650   0.06660   Biso      1.000     C          -0.24645799999999998          
         C3        1.0000    0.30850   0.45860   0.20590   Biso      1.000     C          0.17086600000000002           
         C4        1.0000    0.47850   0.27310   0.15670   Biso      1.000     C          0.180333  
         C5        1.0000    0.41710   0.37070   0.24970   Biso      1.000     C          -0.239031           
         C6        1.0000    0.25960   0.57470   0.31020   Biso      1.000     C          -0.389797           
         C7        1.0000    0.26010   0.33430   0.81970   Biso      1.000     C          -0.390252           
         C8        1.0000    0.08400   0.20560   0.72560   Biso      1.000     C          0.698505  
         C9        1.0000    0.61340   0.18980   0.20640   Biso      1.000     C          -0.406089           
         C10       1.0000    0.55710   0.09240   0.28750   Biso      1.000     C          0.738559  
         C11       1.0000    0.69150   0.54140   0.79410   Biso      1.000     C          0.17086199999999999           
         C12       1.0000    0.74070   0.55350   0.93340   Biso      1.000     C          -0.246454           
         C13       1.0000    0.68690   0.65080   0.03030   Biso      1.000     C          0.189064  
         C14       1.0000    0.57640   0.73570   0.98240   Biso      1.000     C          -0.251644           
         C15       1.0000    0.52150   0.72690   0.84330   Biso      1.000     C          0.180336  
         C16       1.0000    0.58290   0.62930   0.75030   Biso      1.000     C          -0.239031           
         C17       1.0000    0.74040   0.42530   0.68980   Biso      1.000     C          -0.38979600000000003          
         C18       1.0000    0.57350   0.28500   0.60560   Biso      1.000     C          0.724444  
         C19       1.0000    0.73990   0.66570   0.18030   Biso      1.000     C          -0.390252           
         C20       1.0000    0.91600   0.79440   0.27440   Biso      1.000     C          0.698505  
         C21       1.0000    0.38660   0.81020   0.79360   Biso      1.000     C          -0.406089           
         C22       1.0000    0.44290   0.90760   0.71250   Biso      1.000     C          0.738559  
         C23       1.0000    0.31310   0.34920   0.96970   Biso      1.000     C          0.189065  
         C24       1.0000    0.42360   0.26430   0.01760   Biso      1.000     C          -0.251641           
         Dy1       1.0000    0.75332   0.96792   0.54833   Biso      1.000     Dy          2.098552  
         Dy2       1.0000    0.24668   0.03208   0.45167   Biso      1.000     Dy          2.098553  
         H1        1.0000    0.36640   0.87520   0.87660   Biso      1.000     H          0.155324  
         H2        1.0000    0.18570   0.50740   0.03630   Biso      1.000     H          0.117127  
         H3        1.0000    0.46330   0.19760   0.95310   Biso      1.000     H          0.12258800000000002           
         H4        1.0000    0.26360   0.73540   0.73340   Biso      1.000     H          0.15292   
         H5        1.0000    0.15180   0.60330   0.25960   Biso      1.000     H          0.15068199999999998           
         H6        1.0000    0.22010   0.53030   0.37540   Biso      1.000     H          0.159083  
         H7        1.0000    0.23850   0.42950   0.81130   Biso      1.000     H          0.156853  
         H8        1.0000    0.36680   0.31820   0.78650   Biso      1.000     H          0.144603  
         H9        1.0000    0.63360   0.12480   0.12340   Biso      1.000     H          0.155324  
         H10       1.0000    0.45050   0.37690   0.34480   Biso      1.000     H          0.11994500000000001           
         H11       1.0000    0.81430   0.49260   0.96370   Biso      1.000     H          0.117125  
         H12       1.0000    0.53670   0.80240   0.04690   Biso      1.000     H          0.12258699999999999           
         H13       1.0000    0.54950   0.62310   0.65520   Biso      1.000     H          0.11994500000000001           
         H14       1.0000    0.84820   0.39670   0.74040   Biso      1.000     H          0.15068099999999998           
         H15       1.0000    0.77990   0.46970   0.62460   Biso      1.000     H          0.159083  
         H16       1.0000    0.76150   0.57050   0.18870   Biso      1.000     H          0.156852  
         H17       1.0000    0.63320   0.68180   0.21350   Biso      1.000     H          0.144603  
         H18       1.0000    0.73640   0.26460   0.26660   Biso      1.000     H          0.152921  
         O1        1.0000    0.04260   0.83190   0.22770   Biso      1.000     O          -0.594541           
         O2        1.0000    0.93440   0.86160   0.40360   Biso      1.000     O          -0.785996           
         O3        1.0000    0.41200   0.29710   0.55830   Biso      1.000     O          -0.637165           
         O4        1.0000    0.59850   0.15560   0.58390   Biso      1.000     O          -0.770277           
         O5        1.0000    0.68500   0.03990   0.34490   Biso      1.000     O          -0.7004560000000001           
         O6        1.0000    0.58800   0.70290   0.44170   Biso      1.000     O          -0.6371640000000001           
         O7        1.0000    0.95740   0.16810   0.77230   Biso      1.000     O          -0.594541           
         O8        1.0000    0.06560   0.13840   0.59640   Biso      1.000     O          -0.785996           
         O9        1.0000    0.40150   0.84440   0.41610   Biso      1.000     O          -0.770277           
         O10       1.0000    0.60770   0.93170   0.70940   Biso      1.000     O          -0.667745           
         O11       1.0000    0.39230   0.06830   0.29060   Biso      1.000     O          -0.667745           
         O12       1.0000    0.31500   0.96010   0.65510   Biso      1.000     O          -0.7004560000000001 