
##########################################################################
#               Crystallographic Information Format file
#               Produced by PyCifRW module
#
#  This is a CIF file.  CIF has been adopted by the International
#  Union of Crystallography as the standard for data archiving and
#  transmission.
#
#  For information on this file format, follow the CIF links at
#  http://www.iucr.org
##########################################################################

data_image0

_cell_length_a                          9.6879
_cell_length_b                          23.6987
_cell_length_c                          10.4569
_cell_angle_alpha                       90
_cell_angle_beta                        90
_cell_angle_gamma                       90
_symmetry_space_group_name_H-M          'P 1'
_symmetry_int_tables_number             1
loop_
  _symmetry_equiv_pos_as_xyz
         'x, y, z' 
loop_
  _atom_site_label
  _atom_site_occupancy
  _atom_site_fract_x
  _atom_site_fract_y
  _atom_site_fract_z
  _atom_site_thermal_displace_type
  _atom_site_B_iso_or_equiv
  _atom_site_type_symbol
  _atom_site_charge
         C1        1.0000    0.58530   0.68717   0.52753   Biso      1.000     C          0.681484  
         C2        1.0000    0.32860   0.67496   0.58164   Biso      1.000     C          0.11806   
         C3        1.0000    0.46650   0.64690   0.55430   Biso      1.000     C          -0.390646           
         C4        1.0000    0.55750   0.79685   0.96825   Biso      1.000     C          0.548173  
         C5        1.0000    0.42090   0.83007   0.97849   Biso      1.000     C          0.102735  
         C6        1.0000    0.39110   0.84554   0.11710   Biso      1.000     C          -0.39176  
         C7        1.0000    0.39320   0.79646   0.21190   Biso      1.000     C          0.685474  
         C8        1.0000    0.52200   0.90153   0.49110   Biso      1.000     C          0.083435  
         C9        1.0000    0.33417   0.71007   0.70470   Biso      1.000     C          0.569662  
         C10       1.0000    0.60320   0.94659   0.52900   Biso      1.000     C          -0.211716           
         C11       1.0000    0.63980   0.89921   0.72650   Biso      1.000     C          -0.184939           
         C12       1.0000    0.55960   0.85551   0.68030   Biso      1.000     C          0.099396  
         C13       1.0000    0.74170   0.99594   0.69330   Biso      1.000     C          -0.140923           
         C14       1.0000    0.78250   0.00567   0.81310   Biso      1.000     C          -0.132549           
         C15       1.0000    0.98440   0.10451   0.02150   Biso      1.000     C          0.091874  
         C16       1.0000    0.89970   0.06011   0.98350   Biso      1.000     C          -0.208899           
         C17       1.0000    0.86590   0.05404   0.85510   Biso      1.000     C          0.150673  
         C18       1.0000    0.66060   0.94701   0.65080   Biso      1.000     C          0.154373  
         C19       1.0000    0.91650   0.09506   0.77060   Biso      1.000     C          -0.190232           
         C20       1.0000    0.99820   0.86253   0.81650   Biso      1.000     C          0.098446  
         C21       1.0000    0.13410   0.94596   0.85510   Biso      1.000     C          0.150546  
         C22       1.0000    0.67140   0.32504   0.58164   Biso      1.000     C          0.1182    
         C23       1.0000    0.53350   0.35310   0.55430   Biso      1.000     C          -0.390705           
         C24       1.0000    0.41470   0.31283   0.52753   Biso      1.000     C          0.681618  
         C25       1.0000    0.44250   0.20315   0.96825   Biso      1.000     C          0.546604  
         C26       1.0000    0.57910   0.16993   0.97849   Biso      1.000     C          0.102611  
         C27       1.0000    0.60890   0.15446   0.11710   Biso      1.000     C          -0.391432           
         C28       1.0000    0.60680   0.20354   0.21190   Biso      1.000     C          0.683373  
         C29       1.0000    0.08350   0.90494   0.77060   Biso      1.000     C          -0.190027           
         C30       1.0000    0.47800   0.09847   0.49110   Biso      1.000     C          0.083392  
         C31       1.0000    0.33940   0.05299   0.65080   Biso      1.000     C          0.154612  
         C32       1.0000    0.36020   0.10079   0.72650   Biso      1.000     C          -0.185023           
         C33       1.0000    0.44040   0.14449   0.68030   Biso      1.000     C          0.099244  
         C34       1.0000    0.25830   0.00406   0.69330   Biso      1.000     C          -0.14118  
         C35       1.0000    0.21750   0.99433   0.81310   Biso      1.000     C          -0.132163           
         C36       1.0000    0.01560   0.89549   0.02150   Biso      1.000     C          0.091999  
         C37       1.0000    0.10030   0.93989   0.98350   Biso      1.000     C          -0.208807           
         C38       1.0000    0.39680   0.05341   0.52900   Biso      1.000     C          -0.211562           
         C39       1.0000    0.66583   0.28993   0.70470   Biso      1.000     C          0.568053  
         C40       1.0000    0.00180   0.13747   0.81650   Biso      1.000     C          0.098244  
         C41       1.0000    0.17140   0.17496   0.41836   Biso      1.000     C          0.117976  
         C42       1.0000    0.96650   0.85310   0.44570   Biso      1.000     C          -0.390659           
         C43       1.0000    0.08530   0.81283   0.47247   Biso      1.000     C          0.681465  
         C44       1.0000    0.05750   0.70315   0.03175   Biso      1.000     C          0.54822   
         C45       1.0000    0.92090   0.66993   0.02151   Biso      1.000     C          0.102767  
         C46       1.0000    0.89110   0.65446   0.88290   Biso      1.000     C          -0.391852           
         C47       1.0000    0.89320   0.70354   0.78810   Biso      1.000     C          0.685598  
         C48       1.0000    0.02200   0.59847   0.50890   Biso      1.000     C          0.083373  
         C49       1.0000    0.82860   0.82504   0.41836   Biso      1.000     C          0.11803   
         C50       1.0000    0.10320   0.55341   0.47100   Biso      1.000     C          -0.211854           
         C51       1.0000    0.13980   0.60079   0.27350   Biso      1.000     C          -0.185129           
         C52       1.0000    0.05960   0.64449   0.31970   Biso      1.000     C          0.099241  
         C53       1.0000    0.24170   0.50406   0.30670   Biso      1.000     C          -0.141881           
         C54       1.0000    0.28250   0.49433   0.18690   Biso      1.000     C          -0.132236           
         C55       1.0000    0.48440   0.39549   0.97850   Biso      1.000     C          0.090188  
         C56       1.0000    0.39970   0.43989   0.01650   Biso      1.000     C          -0.208997           
         C57       1.0000    0.36590   0.44596   0.14490   Biso      1.000     C          0.149812  
         C58       1.0000    0.16060   0.55299   0.34920   Biso      1.000     C          0.154626  
         C59       1.0000    0.16583   0.21007   0.29530   Biso      1.000     C          0.569515  
         C60       1.0000    0.83417   0.78993   0.29530   Biso      1.000     C          0.569763  
         C61       1.0000    0.58350   0.59506   0.22940   Biso      1.000     C          -0.19     
         C62       1.0000    0.03350   0.14690   0.44570   Biso      1.000     C          -0.390525           
         C63       1.0000    0.91470   0.18717   0.47247   Biso      1.000     C          0.681601  
         C64       1.0000    0.94250   0.29685   0.03175   Biso      1.000     C          0.546617  
         C65       1.0000    0.07910   0.33007   0.02151   Biso      1.000     C          0.102971  
         C66       1.0000    0.10890   0.34554   0.88290   Biso      1.000     C          -0.391933           
         C67       1.0000    0.10680   0.29646   0.78810   Biso      1.000     C          0.685498  
         C68       1.0000    0.97800   0.40153   0.50890   Biso      1.000     C          0.083404  
         C69       1.0000    0.49820   0.63747   0.18350   Biso      1.000     C          0.098364  
         C70       1.0000    0.89680   0.44659   0.47100   Biso      1.000     C          -0.211571           
         C71       1.0000    0.86020   0.39921   0.27350   Biso      1.000     C          -0.185009           
         C72       1.0000    0.94040   0.35551   0.31970   Biso      1.000     C          0.099103  
         C73       1.0000    0.75830   0.49594   0.30670   Biso      1.000     C          -0.141143           
         C74       1.0000    0.71750   0.50567   0.18690   Biso      1.000     C          -0.132063           
         C75       1.0000    0.51560   0.60451   0.97850   Biso      1.000     C          0.09199   
         C76       1.0000    0.60030   0.56011   0.01650   Biso      1.000     C          -0.208691           
         C77       1.0000    0.63410   0.55404   0.14490   Biso      1.000     C          0.150643  
         C78       1.0000    0.83940   0.44701   0.34920   Biso      1.000     C          0.154652  
         C79       1.0000    0.41650   0.40494   0.22940   Biso      1.000     C          -0.190274           
         C80       1.0000    0.50180   0.36253   0.18350   Biso      1.000     C          0.096573  
         H1        1.0000    0.36530   0.46590   0.95510   Biso      1.000     H          0.125293  
         H2        1.0000    0.21190   0.72110   0.47400   Biso      1.000     H          0.375445  
         H3        1.0000    0.45530   0.62170   0.47950   Biso      1.000     H          0.143545  
         H4        1.0000    0.49150   0.62310   0.62850   Biso      1.000     H          0.149779  
         H5        1.0000    0.42740   0.86530   0.92610   Biso      1.000     H          0.067167  
         H6        1.0000    0.30800   0.79220   0.84690   Biso      1.000     H          0.365233  
         H7        1.0000    0.29910   0.86370   0.12110   Biso      1.000     H          0.147043  
         H8        1.0000    0.25660   0.64500   0.59160   Biso      1.000     H          0.071819  
         H9        1.0000    0.45990   0.87380   0.14500   Biso      1.000     H          0.141176  
         H10       1.0000    0.61970   0.97710   0.47200   Biso      1.000     H          0.125861  
         H11       1.0000    0.68050   0.89670   0.80900   Biso      1.000     H          0.131969  
         H12       1.0000    0.54760   0.82310   0.73250   Biso      1.000     H          0.098366  
         H13       1.0000    0.76710   0.02290   0.63030   Biso      1.000     H          0.118057  
         H14       1.0000    0.39250   0.40620   0.31740   Biso      1.000     H          0.124676  
         H15       1.0000    0.00550   0.10820   0.10990   Biso      1.000     H          0.094288  
         H16       1.0000    0.48150   0.90260   0.40840   Biso      1.000     H          0.097593  
         H17       1.0000    0.96320   0.83550   0.75770   Biso      1.000     H          0.105627  
         H18       1.0000    0.10750   0.90620   0.68260   Biso      1.000     H          0.124838  
         H19       1.0000    0.13470   0.96590   0.04490   Biso      1.000     H          0.125362  
         H20       1.0000    0.74340   0.35500   0.59160   Biso      1.000     H          0.071943  
         H21       1.0000    0.78810   0.27890   0.47400   Biso      1.000     H          0.375509  
         H22       1.0000    0.54470   0.37830   0.47950   Biso      1.000     H          0.143815  
         H23       1.0000    0.50850   0.37690   0.62850   Biso      1.000     H          0.149956  
         H24       1.0000    0.57260   0.13470   0.92610   Biso      1.000     H          0.067241  
         H25       1.0000    0.69200   0.20780   0.84690   Biso      1.000     H          0.364903  
         H26       1.0000    0.70090   0.13630   0.12110   Biso      1.000     H          0.147246  
         H27       1.0000    0.54010   0.12620   0.14500   Biso      1.000     H          0.14143   
         H28       1.0000    0.51850   0.09740   0.40840   Biso      1.000     H          0.097581  
         H29       1.0000    0.38030   0.02290   0.47200   Biso      1.000     H          0.125992  
         H30       1.0000    0.31950   0.10330   0.80900   Biso      1.000     H          0.131952  
         H31       1.0000    0.45240   0.17690   0.73250   Biso      1.000     H          0.098162  
         H32       1.0000    0.23290   0.97710   0.63030   Biso      1.000     H          0.118164  
         H33       1.0000    0.24470   0.02080   0.87650   Biso      1.000     H          0.117826  
         H34       1.0000    0.99450   0.89180   0.10990   Biso      1.000     H          0.094314  
         H35       1.0000    0.86530   0.03410   0.04490   Biso      1.000     H          0.125457  
         H36       1.0000    0.89250   0.09380   0.68260   Biso      1.000     H          0.124823  
         H37       1.0000    0.75530   0.97920   0.87650   Biso      1.000     H          0.117939  
         H38       1.0000    0.24340   0.14500   0.40840   Biso      1.000     H          0.071871  
         H39       1.0000    0.71190   0.77890   0.52600   Biso      1.000     H          0.375435  
         H40       1.0000    0.03680   0.16450   0.75770   Biso      1.000     H          0.105561  
         H41       1.0000    0.99150   0.87690   0.37150   Biso      1.000     H          0.149714  
         H42       1.0000    0.92740   0.63470   0.07390   Biso      1.000     H          0.067205  
         H43       1.0000    0.80800   0.70780   0.15310   Biso      1.000     H          0.365217  
         H44       1.0000    0.79910   0.63630   0.87890   Biso      1.000     H          0.147079  
         H45       1.0000    0.75660   0.85500   0.40840   Biso      1.000     H          0.071741  
         H46       1.0000    0.95990   0.62620   0.85500   Biso      1.000     H          0.141252  
         H47       1.0000    0.11970   0.52290   0.52800   Biso      1.000     H          0.125875  
         H48       1.0000    0.18050   0.60330   0.19100   Biso      1.000     H          0.131964  
         H49       1.0000    0.04760   0.67690   0.26750   Biso      1.000     H          0.098287  
         H50       1.0000    0.26710   0.47710   0.36970   Biso      1.000     H          0.118038  
         H51       1.0000    0.25530   0.52080   0.12350   Biso      1.000     H          0.117827  
         H52       1.0000    0.50550   0.39180   0.89010   Biso      1.000     H          0.094244  
         H53       1.0000    0.98150   0.59740   0.59160   Biso      1.000     H          0.097561  
         H54       1.0000    0.46320   0.66450   0.24230   Biso      1.000     H          0.10558   
         H55       1.0000    0.95530   0.87830   0.52050   Biso      1.000     H          0.143445  
         H56       1.0000    0.63470   0.53410   0.95510   Biso      1.000     H          0.125395  
         H57       1.0000    0.28810   0.22110   0.52600   Biso      1.000     H          0.375481  
         H58       1.0000    0.04470   0.12170   0.52050   Biso      1.000     H          0.143622  
         H59       1.0000    0.00850   0.12310   0.37150   Biso      1.000     H          0.149872  
         H60       1.0000    0.60750   0.59380   0.31740   Biso      1.000     H          0.124827  
         H61       1.0000    0.19200   0.29220   0.15310   Biso      1.000     H          0.365353  
         H62       1.0000    0.20090   0.36370   0.87890   Biso      1.000     H          0.147338  
         H63       1.0000    0.04010   0.37380   0.85500   Biso      1.000     H          0.141373  
         H64       1.0000    0.07260   0.36530   0.07390   Biso      1.000     H          0.067369  
         H65       1.0000    0.88030   0.47710   0.52800   Biso      1.000     H          0.126001  
         H66       1.0000    0.81950   0.39670   0.19100   Biso      1.000     H          0.131943  
         H67       1.0000    0.95240   0.32310   0.26750   Biso      1.000     H          0.098168  
         H68       1.0000    0.73290   0.52290   0.36970   Biso      1.000     H          0.118139  
         H69       1.0000    0.74470   0.47920   0.12350   Biso      1.000     H          0.117879  
         H70       1.0000    0.49450   0.60820   0.89010   Biso      1.000     H          0.094301  
         H71       1.0000    0.01850   0.40260   0.59160   Biso      1.000     H          0.097611  
         H72       1.0000    0.53680   0.33550   0.24230   Biso      1.000     H          0.105396  
         N1        1.0000    0.50242   0.14354   0.56539   Biso      1.000     N          -0.216572           
         N2        1.0000    0.96265   0.85784   0.94037   Biso      1.000     N          -0.196901           
         N3        1.0000    0.49758   0.85646   0.56539   Biso      1.000     N          -0.216341           
         N4        1.0000    0.03735   0.14216   0.94037   Biso      1.000     N          -0.197106           
         N5        1.0000    0.00242   0.35646   0.43461   Biso      1.000     N          -0.216576           
         N6        1.0000    0.46265   0.64216   0.05963   Biso      1.000     N          -0.196944           
         N7        1.0000    0.99758   0.64354   0.43461   Biso      1.000     N          -0.216683           
         N8        1.0000    0.53735   0.35784   0.05963   Biso      1.000     N          -0.190201           
         Ni1       1.0000    0.61685   0.21248   0.50533   Biso      1.000     Ni          0.86209   
         Ni2       1.0000    0.85761   0.78640   0.00494   Biso      1.000     Ni          0.850486  
         Ni3       1.0000    0.88315   0.71248   0.49467   Biso      1.000     Ni          0.862355  
         Ni4       1.0000    0.14239   0.21360   0.00494   Biso      1.000     Ni          0.849494  
         Ni5       1.0000    0.11685   0.28752   0.49467   Biso      1.000     Ni          0.862276  
         Ni6       1.0000    0.35761   0.71360   0.99506   Biso      1.000     Ni          0.850062  
         Ni7       1.0000    0.38315   0.78752   0.50533   Biso      1.000     Ni          0.862004  
         Ni8       1.0000    0.64239   0.28640   0.99506   Biso      1.000     Ni          0.810964  
         O1        1.0000    0.16056   0.18323   0.19241   Biso      1.000     O          -0.531801           
         O2        1.0000    0.20526   0.20897   0.52671   Biso      1.000     O          -0.520379           
         O3        1.0000    0.93820   0.23986   0.47581   Biso      1.000     O          -0.570633           
         O4        1.0000    0.79797   0.16581   0.48833   Biso      1.000     O          -0.56513  
         O5        1.0000    0.95160   0.24509   0.05052   Biso      1.000     O          -0.519306           
         O6        1.0000    0.83162   0.32451   0.01843   Biso      1.000     O          -0.54344  
         O7        1.0000    0.19219   0.29627   0.06680   Biso      1.000     O          -0.494702           
         O8        1.0000    0.13256   0.24711   0.82377   Biso      1.000     O          -0.54519  
         O9        1.0000    0.79474   0.79103   0.52671   Biso      1.000     O          -0.520474           
         O10       1.0000    0.83380   0.73649   0.30779   Biso      1.000     O          -0.551338           
         O11       1.0000    0.83944   0.81677   0.19241   Biso      1.000     O          -0.531892           
         O12       1.0000    0.16620   0.26351   0.30779   Biso      1.000     O          -0.551153           
         O13       1.0000    0.06180   0.76014   0.47581   Biso      1.000     O          -0.570626           
         O14       1.0000    0.20203   0.83419   0.48833   Biso      1.000     O          -0.564495           
         O15       1.0000    0.04840   0.75491   0.05052   Biso      1.000     O          -0.520476           
         O16       1.0000    0.16838   0.67549   0.01843   Biso      1.000     O          -0.552169           
         O17       1.0000    0.80781   0.70373   0.06680   Biso      1.000     O          -0.495024           
         O18       1.0000    0.08056   0.31110   0.67527   Biso      1.000     O          -0.581391           
         O19       1.0000    0.41944   0.81110   0.32473   Biso      1.000     O          -0.581497           
         O20       1.0000    0.66838   0.82451   0.98157   Biso      1.000     O          -0.552365           
         O21       1.0000    0.30781   0.79627   0.93320   Biso      1.000     O          -0.494964           
         O22       1.0000    0.66620   0.23649   0.69221   Biso      1.000     O          -0.550641           
         O23       1.0000    0.66056   0.31677   0.80759   Biso      1.000     O          -0.523169           
         O24       1.0000    0.70526   0.29103   0.47329   Biso      1.000     O          -0.52002  
         O25       1.0000    0.43820   0.26014   0.52419   Biso      1.000     O          -0.570813           
         O26       1.0000    0.29797   0.33419   0.51167   Biso      1.000     O          -0.56474  
         O27       1.0000    0.45160   0.25491   0.94948   Biso      1.000     O          -0.51079  
         O28       1.0000    0.33162   0.17549   0.98157   Biso      1.000     O          -0.551499           
         O29       1.0000    0.69219   0.20373   0.93320   Biso      1.000     O          -0.489598           
         O30       1.0000    0.63256   0.25289   0.17623   Biso      1.000     O          -0.534735           
         O31       1.0000    0.58056   0.18890   0.32473   Biso      1.000     O          -0.58025  
         O32       1.0000    0.33380   0.76351   0.69221   Biso      1.000     O          -0.551421           
         O33       1.0000    0.33944   0.68323   0.80759   Biso      1.000     O          -0.531726           
         O34       1.0000    0.29474   0.70897   0.47329   Biso      1.000     O          -0.520426           
         O35       1.0000    0.56180   0.73986   0.52419   Biso      1.000     O          -0.570743           
         O36       1.0000    0.70203   0.66581   0.51167   Biso      1.000     O          -0.564371           
         O37       1.0000    0.54840   0.74509   0.94948   Biso      1.000     O          -0.520303           
         O38       1.0000    0.86744   0.75289   0.82377   Biso      1.000     O          -0.545442           
         O39       1.0000    0.36744   0.74711   0.17623   Biso      1.000     O          -0.544963           
         O40       1.0000    0.91944   0.68890   0.67527   Biso      1.000     O          -0.581555 