
##########################################################################
#               Crystallographic Information Format file
#               Produced by PyCifRW module
#
#  This is a CIF file.  CIF has been adopted by the International
#  Union of Crystallography as the standard for data archiving and
#  transmission.
#
#  For information on this file format, follow the CIF links at
#  http://www.iucr.org
##########################################################################

data_image0

_cell_length_a                          6.731
_cell_length_b                          22.186
_cell_length_c                          7.575
_cell_angle_alpha                       90
_cell_angle_beta                        90
_cell_angle_gamma                       90
_symmetry_space_group_name_H-M          'P 1'
_symmetry_int_tables_number             1
loop_
  _symmetry_equiv_pos_as_xyz
         'x, y, z' 
loop_
  _atom_site_label
  _atom_site_occupancy
  _atom_site_fract_x
  _atom_site_fract_y
  _atom_site_fract_z
  _atom_site_thermal_displace_type
  _atom_site_B_iso_or_equiv
  _atom_site_type_symbol
  _atom_site_charge
         C1        1.0000    0.58600   0.83490   0.14850   Biso      1.000     C          0.135264  
         C2        1.0000    0.94190   0.52800   0.21030   Biso      1.000     C          0.097228  
         C3        1.0000    0.02690   0.58280   0.26240   Biso      1.000     C          -0.184016           
         C4        1.0000    0.91010   0.63430   0.26920   Biso      1.000     C          0.103651  
         C5        1.0000    0.71080   0.79780   0.01620   Biso      1.000     C          0.575901  
         C6        1.0000    0.71350   0.85530   0.30040   Biso      1.000     C          -0.410738           
         C7        1.0000    0.79170   0.80670   0.42570   Biso      1.000     C          0.676847  
         C8        1.0000    0.73930   0.52690   0.17000   Biso      1.000     C          -0.202164           
         C9        1.0000    0.36910   0.41980   0.17600   Biso      1.000     C          0.076506  
         C10       1.0000    0.05810   0.47200   0.21030   Biso      1.000     C          0.097229  
         C11       1.0000    0.97310   0.41720   0.26240   Biso      1.000     C          -0.184015           
         C12       1.0000    0.08990   0.36570   0.26920   Biso      1.000     C          0.103652  
         C13       1.0000    0.28920   0.20220   0.01620   Biso      1.000     C          0.575901  
         C14       1.0000    0.41400   0.16510   0.14850   Biso      1.000     C          0.135264  
         C15       1.0000    0.28650   0.14470   0.30040   Biso      1.000     C          -0.410737           
         C16       1.0000    0.26070   0.47310   0.17000   Biso      1.000     C          -0.202164           
         C17       1.0000    0.20830   0.19330   0.42570   Biso      1.000     C          0.676847  
         C18       1.0000    0.63090   0.58020   0.17600   Biso      1.000     C          0.076505  
         C19       1.0000    0.78650   0.35530   0.69960   Biso      1.000     C          -0.410737           
         C20       1.0000    0.44190   0.97200   0.78970   Biso      1.000     C          0.097228  
         C21       1.0000    0.52690   0.91720   0.73760   Biso      1.000     C          -0.184016           
         C22       1.0000    0.41010   0.86570   0.73080   Biso      1.000     C          0.10365   
         C23       1.0000    0.21080   0.70220   0.98380   Biso      1.000     C          0.5759    
         C24       1.0000    0.08600   0.66510   0.85150   Biso      1.000     C          0.135264  
         C25       1.0000    0.21350   0.64470   0.69960   Biso      1.000     C          -0.410738           
         C26       1.0000    0.70830   0.30670   0.57430   Biso      1.000     C          0.676847  
         C27       1.0000    0.29170   0.69330   0.57430   Biso      1.000     C          0.676847  
         C28       1.0000    0.76070   0.02690   0.83000   Biso      1.000     C          -0.202164           
         C29       1.0000    0.55810   0.02800   0.78970   Biso      1.000     C          0.097228  
         C30       1.0000    0.47310   0.08280   0.73760   Biso      1.000     C          -0.184016           
         C31       1.0000    0.58990   0.13430   0.73080   Biso      1.000     C          0.10365   
         C32       1.0000    0.78920   0.29780   0.98380   Biso      1.000     C          0.5759    
         C33       1.0000    0.91400   0.33490   0.85150   Biso      1.000     C          0.135264  
         C34       1.0000    0.86910   0.08020   0.82400   Biso      1.000     C          0.076505  
         C35       1.0000    0.23930   0.97310   0.83000   Biso      1.000     C          -0.202165           
         C36       1.0000    0.13090   0.91980   0.82400   Biso      1.000     C          0.076504  
         H1        1.0000    0.66360   0.91530   0.70710   Biso      1.000     H          0.129512  
         H2        1.0000    0.36410   0.11550   0.37090   Biso      1.000     H          0.1396    
         H3        1.0000    0.17090   0.12280   0.25130   Biso      1.000     H          0.14646   
         H4        1.0000    0.46940   0.12890   0.08690   Biso      1.000     H          0.065469  
         H5        1.0000    0.70650   0.18740   0.24740   Biso      1.000     H          0.412496  
         H6        1.0000    0.03060   0.32860   0.30390   Biso      1.000     H          0.114283  
         H7        1.0000    0.83640   0.41530   0.29290   Biso      1.000     H          0.129513  
         H8        1.0000    0.32370   0.50990   0.13860   Biso      1.000     H          0.122535  
         H9        1.0000    0.50540   0.42070   0.14390   Biso      1.000     H          0.089252  
         H10       1.0000    0.63590   0.88450   0.37090   Biso      1.000     H          0.139599  
         H11       1.0000    0.82910   0.87720   0.25130   Biso      1.000     H          0.14646   
         H12       1.0000    0.53060   0.87110   0.08690   Biso      1.000     H          0.065469  
         H13       1.0000    0.29350   0.81260   0.24740   Biso      1.000     H          0.412495  
         H14       1.0000    0.96940   0.67140   0.30390   Biso      1.000     H          0.114282  
         H15       1.0000    0.17630   0.00990   0.86140   Biso      1.000     H          0.122534  
         H16       1.0000    0.67630   0.49010   0.13860   Biso      1.000     H          0.122534  
         H17       1.0000    0.16360   0.58470   0.29290   Biso      1.000     H          0.129513  
         H18       1.0000    0.86410   0.38450   0.62910   Biso      1.000     H          0.139598  
         H19       1.0000    0.46940   0.82860   0.69610   Biso      1.000     H          0.114281  
         H20       1.0000    0.79350   0.68740   0.75260   Biso      1.000     H          0.412494  
         H21       1.0000    0.03060   0.62890   0.91310   Biso      1.000     H          0.065468  
         H22       1.0000    0.32910   0.62280   0.74870   Biso      1.000     H          0.146461  
         H23       1.0000    0.49460   0.57930   0.14390   Biso      1.000     H          0.089251  
         H24       1.0000    0.00540   0.07930   0.85610   Biso      1.000     H          0.089251  
         H25       1.0000    0.13590   0.61550   0.62910   Biso      1.000     H          0.139598  
         H26       1.0000    0.33640   0.08470   0.70710   Biso      1.000     H          0.129512  
         H27       1.0000    0.53060   0.17140   0.69610   Biso      1.000     H          0.114282  
         H28       1.0000    0.20650   0.31260   0.75260   Biso      1.000     H          0.412494  
         H29       1.0000    0.96940   0.37110   0.91310   Biso      1.000     H          0.065469  
         H30       1.0000    0.67090   0.37720   0.74870   Biso      1.000     H          0.146459  
         H31       1.0000    0.82370   0.99010   0.86140   Biso      1.000     H          0.122535  
         H32       1.0000    0.99460   0.92070   0.85610   Biso      1.000     H          0.089251  
         N1        1.0000    0.28730   0.36649   0.22750   Biso      1.000     N          -0.199817           
         N2        1.0000    0.71270   0.63351   0.22750   Biso      1.000     N          -0.199815           
         N3        1.0000    0.78730   0.13351   0.77250   Biso      1.000     N          -0.199818           
         N4        1.0000    0.21270   0.86649   0.77250   Biso      1.000     N          -0.199818           
         Ni1       1.0000    0.45767   0.28894   0.24597   Biso      1.000     Ni          0.885699  
         Ni2       1.0000    0.04233   0.78894   0.75403   Biso      1.000     Ni          0.885702  
         Ni3       1.0000    0.95767   0.21106   0.75403   Biso      1.000     Ni          0.885699  
         Ni4       1.0000    0.54233   0.71106   0.24597   Biso      1.000     Ni          0.885696  
         O1        1.0000    0.92390   0.70062   0.78080   Biso      1.000     O          -0.531656           
         O2        1.0000    0.39870   0.67298   0.45300   Biso      1.000     O          -0.580421           
         O3        1.0000    0.25060   0.74825   0.59710   Biso      1.000     O          -0.577305           
         O4        1.0000    0.67500   0.32546   0.08230   Biso      1.000     O          -0.542176           
         O5        1.0000    0.81320   0.24099   0.97940   Biso      1.000     O          -0.542405           
         O6        1.0000    0.07610   0.29938   0.78080   Biso      1.000     O          -0.531656           
         O7        1.0000    0.60130   0.32702   0.45300   Biso      1.000     O          -0.580422           
         O8        1.0000    0.74940   0.25175   0.59710   Biso      1.000     O          -0.577305           
         O9        1.0000    0.82500   0.82546   0.91770   Biso      1.000     O          -0.542175           
         O10       1.0000    0.68680   0.74099   0.02060   Biso      1.000     O          -0.542405           
         O11       1.0000    0.42390   0.79938   0.21920   Biso      1.000     O          -0.531655           
         O12       1.0000    0.89870   0.82702   0.54700   Biso      1.000     O          -0.580421           
         O13       1.0000    0.75060   0.75175   0.40290   Biso      1.000     O          -0.577305           
         O14       1.0000    0.17500   0.17454   0.91770   Biso      1.000     O          -0.542175           
         O15       1.0000    0.31320   0.25901   0.02060   Biso      1.000     O          -0.542406           
         O16       1.0000    0.57610   0.20062   0.21920   Biso      1.000     O          -0.531657           
         O17       1.0000    0.10130   0.17298   0.54700   Biso      1.000     O          -0.58042  
         O18       1.0000    0.24940   0.24825   0.40290   Biso      1.000     O          -0.577306           
         O19       1.0000    0.18680   0.75901   0.97940   Biso      1.000     O          -0.542406           
         O20       1.0000    0.32500   0.67454   0.08230   Biso      1.000     O          -0.542175 