
##########################################################################
#               Crystallographic Information Format file
#               Produced by PyCifRW module
#
#  This is a CIF file.  CIF has been adopted by the International
#  Union of Crystallography as the standard for data archiving and
#  transmission.
#
#  For information on this file format, follow the CIF links at
#  http://www.iucr.org
##########################################################################

data_image0

_cell_length_a                          11.961
_cell_length_b                          17.566
_cell_length_c                          18.514
_cell_angle_alpha                       116.65
_cell_angle_beta                        90
_cell_angle_gamma                       90
_symmetry_space_group_name_H-M          'P 1'
_symmetry_int_tables_number             1
loop_
  _symmetry_equiv_pos_as_xyz
         'x, y, z' 
loop_
  _atom_site_label
  _atom_site_occupancy
  _atom_site_fract_x
  _atom_site_fract_y
  _atom_site_fract_z
  _atom_site_thermal_displace_type
  _atom_site_B_iso_or_equiv
  _atom_site_type_symbol
  _atom_site_charge
         C1        1.0000    0.20510   0.32420   0.40490   Biso      1.000     C          0.660845  
         C2        1.0000    0.07780   0.99190   0.60430   Biso      1.000     C          -0.10945999999999999          
         C3        1.0000    0.07320   0.84860   0.47870   Biso      1.000     C          0.657227  
         C4        1.0000    0.15880   0.97960   0.48150   Biso      1.000     C          -0.12366300000000001          
         C5        1.0000    0.09750   0.07900   0.64130   Biso      1.000     C          -0.028841000000000002         
         C6        1.0000    0.17730   0.06610   0.51630   Biso      1.000     C          -0.011879           
         C7        1.0000    0.14590   0.11610   0.59670   Biso      1.000     C          -0.133035           
         C8        1.0000    0.22630   0.10730   0.46790   Biso      1.000     C          0.608575  
         C9        1.0000    0.40230   0.58790   0.87250   Biso      1.000     C          0.662741  
         C10       1.0000    0.35030   0.50180   0.84400   Biso      1.000     C          -0.024656           
         C11       1.0000    0.10590   0.94140   0.52410   Biso      1.000     C          -0.026198000000000003         
         C12       1.0000    0.28990   0.46970   0.77220   Biso      1.000     C          -0.11596600000000001          
         C13       1.0000    0.17560   0.35690   0.66380   Biso      1.000     C          0.6105109999999999  
         C14       1.0000    0.35710   0.45310   0.88600   Biso      1.000     C          -0.100356           
         C15       1.0000    0.23360   0.39320   0.74370   Biso      1.000     C          -0.025524           
         C16       1.0000    0.23390   0.34880   0.78970   Biso      1.000     C          -0.15033  
         C17       1.0000    0.29730   0.37680   0.85940   Biso      1.000     C          -0.016911000000000002         
         C18       1.0000    0.56420   0.86370   0.77230   Biso      1.000     C          0.684779  
         C19       1.0000    0.60590   0.05860   0.97590   Biso      1.000     C          -0.026201           
         C20       1.0000    0.57780   0.00810   0.89570   Biso      1.000     C          -0.10945799999999999          
         C21       1.0000    0.57320   0.15140   0.02130   Biso      1.000     C          0.657227  
         C22       1.0000    0.29490   0.32420   0.90490   Biso      1.000     C          0.660845  
         C23       1.0000    0.65880   0.02040   0.01850   Biso      1.000     C          -0.123662           
         C24       1.0000    0.06420   0.13630   0.72770   Biso      1.000     C          0.684779  
         C25       1.0000    0.26610   0.34880   0.28970   Biso      1.000     C          -0.150331           
         C26       1.0000    0.64290   0.54690   0.11400   Biso      1.000     C          -0.100356           
         C27       1.0000    0.76640   0.60680   0.25630   Biso      1.000     C          -0.025529           
         C28       1.0000    0.76610   0.65120   0.21030   Biso      1.000     C          -0.15033  
         C29       1.0000    0.70270   0.62320   0.14060   Biso      1.000     C          -0.016911000000000002         
         C30       1.0000    0.43580   0.13630   0.22770   Biso      1.000     C          0.684779  
         C31       1.0000    0.39410   0.94140   0.02410   Biso      1.000     C          -0.026201           
         C32       1.0000    0.42220   0.99190   0.10430   Biso      1.000     C          -0.10945799999999999          
         C33       1.0000    0.42680   0.84860   0.97870   Biso      1.000     C          0.657227  
         C34       1.0000    0.34120   0.97960   0.98150   Biso      1.000     C          -0.123662           
         C35       1.0000    0.20270   0.37680   0.35940   Biso      1.000     C          -0.016911000000000002         
         C36       1.0000    0.40250   0.07900   0.14130   Biso      1.000     C          -0.028841000000000002         
         C37       1.0000    0.35410   0.11610   0.09670   Biso      1.000     C          -0.133036           
         C38       1.0000    0.27370   0.10730   0.96790   Biso      1.000     C          0.608574  
         C39       1.0000    0.09770   0.58790   0.37250   Biso      1.000     C          0.662741  
         C40       1.0000    0.14970   0.50180   0.34400   Biso      1.000     C          -0.024656           
         C41       1.0000    0.21010   0.46970   0.27220   Biso      1.000     C          -0.11596600000000001          
         C42       1.0000    0.71010   0.53030   0.22780   Biso      1.000     C          -0.11596300000000001          
         C43       1.0000    0.32440   0.35690   0.16380   Biso      1.000     C          0.6105109999999999  
         C44       1.0000    0.14290   0.45310   0.38600   Biso      1.000     C          -0.100356           
         C45       1.0000    0.26640   0.39320   0.24370   Biso      1.000     C          -0.025524           
         C46       1.0000    0.32270   0.06610   0.01630   Biso      1.000     C          -0.011878           
         C47       1.0000    0.59750   0.92100   0.85870   Biso      1.000     C          -0.028841000000000002         
         C48       1.0000    0.67730   0.93390   0.98370   Biso      1.000     C          -0.011879           
         C49       1.0000    0.64590   0.88390   0.90330   Biso      1.000     C          -0.133035           
         C50       1.0000    0.93580   0.86370   0.27230   Biso      1.000     C          0.684779  
         C51       1.0000    0.89410   0.05860   0.47590   Biso      1.000     C          -0.026201           
         C52       1.0000    0.92220   0.00810   0.39570   Biso      1.000     C          -0.10945799999999999          
         C53       1.0000    0.92680   0.15140   0.52130   Biso      1.000     C          0.657227  
         C54       1.0000    0.84120   0.02040   0.51850   Biso      1.000     C          -0.123662           
         C55       1.0000    0.90250   0.92100   0.35870   Biso      1.000     C          -0.028841000000000002         
         C56       1.0000    0.82270   0.93390   0.48370   Biso      1.000     C          -0.011879           
         C57       1.0000    0.85410   0.88390   0.40330   Biso      1.000     C          -0.133035           
         C58       1.0000    0.77370   0.89270   0.53210   Biso      1.000     C          0.608575  
         C59       1.0000    0.59770   0.41210   0.12750   Biso      1.000     C          0.66274   
         C60       1.0000    0.64970   0.49820   0.15600   Biso      1.000     C          -0.024655           
         C61       1.0000    0.82440   0.64310   0.33620   Biso      1.000     C          0.6105109999999999  
         C62       1.0000    0.70510   0.67580   0.09510   Biso      1.000     C          0.660845  
         C63       1.0000    0.72630   0.89270   0.03210   Biso      1.000     C          0.608575  
         C64       1.0000    0.90230   0.41210   0.62750   Biso      1.000     C          0.662741  
         C65       1.0000    0.85030   0.49820   0.65600   Biso      1.000     C          -0.024656           
         C66       1.0000    0.78990   0.53030   0.72780   Biso      1.000     C          -0.11596600000000001          
         C67       1.0000    0.79490   0.67580   0.59510   Biso      1.000     C          0.660845  
         C68       1.0000    0.67560   0.64310   0.83620   Biso      1.000     C          0.6105109999999999  
         C69       1.0000    0.85710   0.54690   0.61400   Biso      1.000     C          -0.100356           
         C70       1.0000    0.73360   0.60680   0.75630   Biso      1.000     C          -0.025524           
         C71       1.0000    0.73390   0.65120   0.71030   Biso      1.000     C          -0.15033  
         C72       1.0000    0.79730   0.62320   0.64060   Biso      1.000     C          -0.016911000000000002         
         H1        1.0000    0.71250   0.49930   0.25740   Biso      1.000     H          0.119369  
         H2        1.0000    0.95510   0.03310   0.36610   Biso      1.000     H          0.127442  
         H3        1.0000    0.69100   0.70030   0.72650   Biso      1.000     H          0.11001   
         H4        1.0000    0.90160   0.52860   0.56810   Biso      1.000     H          0.13656300000000002           
         H5        1.0000    0.78750   0.49930   0.75740   Biso      1.000     H          0.119369  
         H6        1.0000    0.65740   0.82540   0.87960   Biso      1.000     H          0.122728  
         H7        1.0000    0.68200   0.05400   0.07130   Biso      1.000     H          0.142905  
         H8        1.0000    0.54490   0.03310   0.86610   Biso      1.000     H          0.127442  
         H9        1.0000    0.59840   0.52860   0.06810   Biso      1.000     H          0.13656300000000002           
         H10       1.0000    0.80900   0.70030   0.22650   Biso      1.000     H          0.11001   
         H11       1.0000    0.45510   0.96690   0.13390   Biso      1.000     H          0.127442  
         H12       1.0000    0.31800   0.94600   0.92870   Biso      1.000     H          0.142905  
         H13       1.0000    0.34260   0.17460   0.12040   Biso      1.000     H          0.122728  
         H14       1.0000    0.21250   0.50070   0.24260   Biso      1.000     H          0.119369  
         H15       1.0000    0.84260   0.82540   0.37960   Biso      1.000     H          0.122728  
         H16       1.0000    0.09840   0.47140   0.43190   Biso      1.000     H          0.13656300000000002           
         H17       1.0000    0.81800   0.05400   0.57130   Biso      1.000     H          0.142905  
         H18       1.0000    0.18200   0.94600   0.42870   Biso      1.000     H          0.142905  
         H19       1.0000    0.15740   0.17460   0.62040   Biso      1.000     H          0.122728  
         H20       1.0000    0.28750   0.50070   0.74260   Biso      1.000     H          0.119369  
         H21       1.0000    0.40160   0.47140   0.93190   Biso      1.000     H          0.13656300000000002           
         H22       1.0000    0.19100   0.29970   0.77350   Biso      1.000     H          0.11001   
         H23       1.0000    0.30900   0.29970   0.27350   Biso      1.000     H          0.11001   
         H24       1.0000    0.04490   0.96690   0.63390   Biso      1.000     H          0.127442  
         Mg1       1.0000    0.58148   0.71276   0.97254   Biso      1.000     Mg          1.374931  
         Mg2       1.0000    0.67878   0.83418   0.61854   Biso      1.000     Mg          1.419727  
         Mg3       1.0000    0.82122   0.83418   0.11854   Biso      1.000     Mg          1.419727  
         Mg4       1.0000    0.08148   0.28724   0.52746   Biso      1.000     Mg          1.374931  
         Mg5       1.0000    0.94760   0.28781   0.69953   Biso      1.000     Mg          1.5287950000000001  
         Mg6       1.0000    0.32122   0.16582   0.38146   Biso      1.000     Mg          1.419727  
         Mg7       1.0000    0.44760   0.71219   0.80047   Biso      1.000     Mg          1.5287950000000001  
         Mg8       1.0000    0.55240   0.28781   0.19953   Biso      1.000     Mg          1.5287950000000001  
         Mg9       1.0000    0.17878   0.16582   0.88146   Biso      1.000     Mg          1.419727  
         Mg10      1.0000    0.91852   0.71276   0.47254   Biso      1.000     Mg          1.374931  
         Mg11      1.0000    0.05240   0.71219   0.30047   Biso      1.000     Mg          1.5287950000000001  
         Mg12      1.0000    0.41852   0.28724   0.02746   Biso      1.000     Mg          1.374931  
         O1        1.0000    0.47600   0.81487   0.01737   Biso      1.000     O          -0.652143           
         O2        1.0000    0.11750   0.32096   0.44045   Biso      1.000     O          -0.6267050000000001           
         O3        1.0000    0.29030   0.37300   0.10858   Biso      1.000     O          -0.560379           
         O4        1.0000    0.03430   0.61469   0.43342   Biso      1.000     O          -0.623817           
         O5        1.0000    0.29480   0.28570   0.40190   Biso      1.000     O          -0.708218           
         O6        1.0000    0.12290   0.62790   0.33350   Biso      1.000     O          -0.732769           
         O7        1.0000    0.28660   0.18676   0.99025   Biso      1.000     O          -0.6999479999999999           
         O8        1.0000    0.21780   0.06270   0.90567   Biso      1.000     O          -0.630173           
         O9        1.0000    0.40560   0.81323   0.90525   Biso      1.000     O          -0.704557           
         O10       1.0000    0.47910   0.20657   0.24270   Biso      1.000     O          -0.6895819999999999           
         O11       1.0000    0.79480   0.71430   0.09810   Biso      1.000     O          -0.708218           
         O12       1.0000    0.90540   0.69509   0.34912   Biso      1.000     O          -0.782712           
         O13       1.0000    0.61750   0.67904   0.05955   Biso      1.000     O          -0.6267050000000001           
         O14       1.0000    0.79030   0.62700   0.39142   Biso      1.000     O          -0.560379           
         O15       1.0000    0.53430   0.38531   0.06658   Biso      1.000     O          -0.623817           
         O16       1.0000    0.40540   0.30491   0.15088   Biso      1.000     O          -0.782712           
         O17       1.0000    0.62290   0.37210   0.16650   Biso      1.000     O          -0.732769           
         O18       1.0000    0.78660   0.81324   0.50975   Biso      1.000     O          -0.6999479999999999           
         O19       1.0000    0.71780   0.93730   0.59433   Biso      1.000     O          -0.630173           
         O20       1.0000    0.90560   0.18677   0.59475   Biso      1.000     O          -0.704557           
         O21       1.0000    0.97600   0.18513   0.48263   Biso      1.000     O          -0.652143           
         O22       1.0000    0.41630   0.11090   0.28056   Biso      1.000     O          -0.6893239999999999           
         O23       1.0000    0.08370   0.11090   0.78056   Biso      1.000     O          -0.6893239999999999           
         O24       1.0000    0.21340   0.18676   0.49025   Biso      1.000     O          -0.6999479999999999           
         O25       1.0000    0.02400   0.81487   0.51737   Biso      1.000     O          -0.652143           
         O26       1.0000    0.59460   0.69509   0.84912   Biso      1.000     O          -0.782712           
         O27       1.0000    0.88250   0.67904   0.55955   Biso      1.000     O          -0.6267050000000001           
         O28       1.0000    0.70970   0.62700   0.89142   Biso      1.000     O          -0.560379           
         O29       1.0000    0.96570   0.38531   0.56658   Biso      1.000     O          -0.623817           
         O30       1.0000    0.70520   0.71430   0.59810   Biso      1.000     O          -0.708218           
         O31       1.0000    0.87710   0.37210   0.66650   Biso      1.000     O          -0.732769           
         O32       1.0000    0.71340   0.81324   0.00975   Biso      1.000     O          -0.6999479999999999           
         O33       1.0000    0.78220   0.93730   0.09433   Biso      1.000     O          -0.630173           
         O34       1.0000    0.59440   0.18677   0.09475   Biso      1.000     O          -0.704557           
         O35       1.0000    0.52400   0.18513   0.98263   Biso      1.000     O          -0.652143           
         O36       1.0000    0.52090   0.79343   0.75730   Biso      1.000     O          -0.6895819999999999           
         O37       1.0000    0.58370   0.88910   0.71944   Biso      1.000     O          -0.6893239999999999           
         O38       1.0000    0.09460   0.30491   0.65088   Biso      1.000     O          -0.782712           
         O39       1.0000    0.38250   0.32096   0.94045   Biso      1.000     O          -0.6267050000000001           
         O40       1.0000    0.20970   0.37300   0.60858   Biso      1.000     O          -0.560379           
         O41       1.0000    0.46570   0.61469   0.93342   Biso      1.000     O          -0.623817           
         O42       1.0000    0.20520   0.28570   0.90190   Biso      1.000     O          -0.708218           
         O43       1.0000    0.37710   0.62790   0.83350   Biso      1.000     O          -0.732769           
         O44       1.0000    0.97910   0.79343   0.25730   Biso      1.000     O          -0.6895819999999999           
         O45       1.0000    0.28220   0.06270   0.40567   Biso      1.000     O          -0.630174           
         O46       1.0000    0.09440   0.81323   0.40525   Biso      1.000     O          -0.704557           
         O47       1.0000    0.02090   0.20657   0.74270   Biso      1.000     O          -0.6895819999999999           
         O48       1.0000    0.91630   0.88910   0.21944   Biso      1.000     O          -0.6893239999999999 