
##########################################################################
#               Crystallographic Information Format file
#               Produced by PyCifRW module
#
#  This is a CIF file.  CIF has been adopted by the International
#  Union of Crystallography as the standard for data archiving and
#  transmission.
#
#  For information on this file format, follow the CIF links at
#  http://www.iucr.org
##########################################################################

data_image0

_cell_length_a                          17.49
_cell_length_b                          11.94
_cell_length_c                          18.46
_cell_angle_alpha                       90
_cell_angle_beta                        116.87
_cell_angle_gamma                       90
_symmetry_space_group_name_H-M          'P 1'
_symmetry_int_tables_number             1
loop_
  _symmetry_equiv_pos_as_xyz
         'x, y, z' 
loop_
  _atom_site_label
  _atom_site_occupancy
  _atom_site_fract_x
  _atom_site_fract_y
  _atom_site_fract_z
  _atom_site_thermal_displace_type
  _atom_site_B_iso_or_equiv
  _atom_site_type_symbol
  _atom_site_charge
         C1        1.0000    0.07880   0.40279   0.14157   Biso      1.000     C          -0.030298000000000002         
         C2        1.0000    0.65119   0.73327   0.71026   Biso      1.000     C          -0.151789           
         C3        1.0000    0.11572   0.35331   0.09682   Biso      1.000     C          -0.13223  
         C4        1.0000    0.41143   0.59699   0.12702   Biso      1.000     C          0.6668729999999999  
         C5        1.0000    0.97933   0.34106   0.98146   Biso      1.000     C          -0.125173           
         C6        1.0000    0.54677   0.85727   0.61391   Biso      1.000     C          -0.109492           
         C7        1.0000    0.65119   0.76673   0.21026   Biso      1.000     C          -0.151789           
         C8        1.0000    0.99172   0.42296   0.10500   Biso      1.000     C          -0.110319           
         C9        1.0000    0.06675   0.32190   0.01710   Biso      1.000     C          -0.012998           
         C10       1.0000    0.53000   0.78993   0.72813   Biso      1.000     C          -0.11724100000000001          
         C11       1.0000    0.53000   0.71007   0.22813   Biso      1.000     C          -0.11724100000000001          
         C12       1.0000    0.84889   0.42704   0.97903   Biso      1.000     C          0.659682  
         C13       1.0000    0.92120   0.90279   0.35843   Biso      1.000     C          -0.030298000000000002         
         C14       1.0000    0.15111   0.92704   0.52097   Biso      1.000     C          0.659682  
         C15       1.0000    0.89257   0.77299   0.53188   Biso      1.000     C          0.61624   
         C16       1.0000    0.54677   0.64273   0.11391   Biso      1.000     C          -0.109492           
         C17       1.0000    0.47000   0.28993   0.77187   Biso      1.000     C          -0.11724100000000001          
         C18       1.0000    0.67605   0.70463   0.09512   Biso      1.000     C          0.6629470000000001  
         C19       1.0000    0.84889   0.07296   0.47903   Biso      1.000     C          0.659682  
         C20       1.0000    0.49836   0.65017   0.15631   Biso      1.000     C          -0.025941000000000002         
         C21       1.0000    0.11572   0.14669   0.59682   Biso      1.000     C          -0.132231           
         C22       1.0000    0.62279   0.70324   0.14043   Biso      1.000     C          -0.016628           
         C23       1.0000    0.99172   0.07704   0.60500   Biso      1.000     C          -0.110323           
         C24       1.0000    0.67605   0.79537   0.59512   Biso      1.000     C          0.6629470000000001  
         C25       1.0000    0.62279   0.79676   0.64043   Biso      1.000     C          -0.016628           
         C26       1.0000    0.07880   0.09721   0.64157   Biso      1.000     C          -0.030293           
         C27       1.0000    0.49836   0.84983   0.65631   Biso      1.000     C          -0.025941000000000002         
         C28       1.0000    0.41143   0.90301   0.62702   Biso      1.000     C          0.6668729999999999  
         C29       1.0000    0.06675   0.17810   0.51710   Biso      1.000     C          -0.012998           
         C30       1.0000    0.94151   0.10630   0.52410   Biso      1.000     C          -0.026935           
         C31       1.0000    0.64340   0.67603   0.83628   Biso      1.000     C          0.6159399999999999  
         C32       1.0000    0.13636   0.06365   0.72804   Biso      1.000     C          0.688541  
         C33       1.0000    0.10743   0.22701   0.46812   Biso      1.000     C          0.61624   
         C34       1.0000    0.60698   0.73342   0.75644   Biso      1.000     C          -0.02678  
         C35       1.0000    0.86364   0.93635   0.27196   Biso      1.000     C          0.688542  
         C36       1.0000    0.45323   0.35727   0.88609   Biso      1.000     C          -0.109492           
         C37       1.0000    0.35660   0.32397   0.16372   Biso      1.000     C          0.6159399999999999  
         C38       1.0000    0.39302   0.26658   0.24356   Biso      1.000     C          -0.026782999999999998         
         C39       1.0000    0.50164   0.15017   0.34369   Biso      1.000     C          -0.025944           
         C40       1.0000    0.37721   0.20324   0.35957   Biso      1.000     C          -0.016628           
         C41       1.0000    0.32395   0.20463   0.40488   Biso      1.000     C          0.6629470000000001  
         C42       1.0000    0.00828   0.92296   0.39500   Biso      1.000     C          -0.110319           
         C43       1.0000    0.47000   0.21007   0.27187   Biso      1.000     C          -0.11723499999999999          
         C44       1.0000    0.92120   0.59721   0.85843   Biso      1.000     C          -0.030298000000000002         
         C45       1.0000    0.88428   0.85331   0.40318   Biso      1.000     C          -0.13223  
         C46       1.0000    0.02067   0.84106   0.51854   Biso      1.000     C          -0.125173           
         C47       1.0000    0.64340   0.82397   0.33628   Biso      1.000     C          0.6159399999999999  
         C48       1.0000    0.34881   0.26673   0.28974   Biso      1.000     C          -0.151788           
         C49       1.0000    0.13636   0.43635   0.22804   Biso      1.000     C          0.688542  
         C50       1.0000    0.45323   0.14273   0.38609   Biso      1.000     C          -0.109492           
         C51       1.0000    0.10743   0.27299   0.96812   Biso      1.000     C          0.61624   
         C52       1.0000    0.94151   0.39370   0.02410   Biso      1.000     C          -0.026933           
         C53       1.0000    0.15111   0.57296   0.02097   Biso      1.000     C          0.659682  
         C54       1.0000    0.89257   0.72701   0.03188   Biso      1.000     C          0.61624   
         C55       1.0000    0.86364   0.56365   0.77196   Biso      1.000     C          0.688542  
         C56       1.0000    0.34881   0.23327   0.78974   Biso      1.000     C          -0.151789           
         C57       1.0000    0.05849   0.89370   0.47590   Biso      1.000     C          -0.026933           
         C58       1.0000    0.02067   0.65894   0.01854   Biso      1.000     C          -0.125173           
         C59       1.0000    0.93325   0.82190   0.48290   Biso      1.000     C          -0.012998           
         C60       1.0000    0.88428   0.64669   0.90318   Biso      1.000     C          -0.13223  
         C61       1.0000    0.58857   0.09699   0.37298   Biso      1.000     C          0.6668729999999999  
         C62       1.0000    0.00828   0.57704   0.89500   Biso      1.000     C          -0.110319           
         C63       1.0000    0.32395   0.29537   0.90488   Biso      1.000     C          0.6629470000000001  
         C64       1.0000    0.37721   0.29676   0.85957   Biso      1.000     C          -0.016628           
         C65       1.0000    0.50164   0.34983   0.84369   Biso      1.000     C          -0.025941000000000002         
         C66       1.0000    0.39302   0.23342   0.74356   Biso      1.000     C          -0.02678  
         C67       1.0000    0.58857   0.40301   0.87298   Biso      1.000     C          0.6668729999999999  
         C68       1.0000    0.93325   0.67810   0.98290   Biso      1.000     C          -0.012998           
         C69       1.0000    0.05849   0.60630   0.97590   Biso      1.000     C          -0.026933           
         C70       1.0000    0.35660   0.17603   0.66372   Biso      1.000     C          0.6159399999999999  
         C71       1.0000    0.97933   0.15894   0.48146   Biso      1.000     C          -0.125171           
         C72       1.0000    0.60698   0.76658   0.25644   Biso      1.000     C          -0.02678  
         H1        1.0000    0.49890   0.78770   0.75780   Biso      1.000     H          0.12130099999999999           
         H2        1.0000    0.17460   0.34110   0.12110   Biso      1.000     H          0.121031  
         H3        1.0000    0.94550   0.31830   0.92820   Biso      1.000     H          0.14326   
         H4        1.0000    0.70040   0.81000   0.22650   Biso      1.000     H          0.109082  
         H5        1.0000    0.52850   0.59760   0.06810   Biso      1.000     H          0.140736  
         H6        1.0000    0.03350   0.95620   0.36550   Biso      1.000     H          0.12901600000000002           
         H7        1.0000    0.82540   0.84110   0.37890   Biso      1.000     H          0.121031  
         H8        1.0000    0.05450   0.81830   0.57180   Biso      1.000     H          0.14326   
         H9        1.0000    0.29960   0.31000   0.27350   Biso      1.000     H          0.109081  
         H10       1.0000    0.47150   0.09760   0.43190   Biso      1.000     H          0.140736  
         H11       1.0000    0.96650   0.45620   0.13450   Biso      1.000     H          0.12901600000000002           
         H12       1.0000    0.49890   0.71230   0.25780   Biso      1.000     H          0.12130099999999999           
         H13       1.0000    0.50110   0.21230   0.24220   Biso      1.000     H          0.12130099999999999           
         H14       1.0000    0.29960   0.19000   0.77350   Biso      1.000     H          0.109082  
         H15       1.0000    0.82540   0.65890   0.87890   Biso      1.000     H          0.121031  
         H16       1.0000    0.03350   0.54380   0.86550   Biso      1.000     H          0.12901600000000002           
         H17       1.0000    0.47150   0.40240   0.93190   Biso      1.000     H          0.140736  
         H18       1.0000    0.50110   0.28770   0.74220   Biso      1.000     H          0.12130099999999999           
         H19       1.0000    0.96650   0.04380   0.63450   Biso      1.000     H          0.12901600000000002           
         H20       1.0000    0.17460   0.15890   0.62110   Biso      1.000     H          0.12103199999999999           
         H21       1.0000    0.94550   0.18170   0.42820   Biso      1.000     H          0.14326   
         H22       1.0000    0.70040   0.69000   0.72650   Biso      1.000     H          0.109082  
         H23       1.0000    0.52850   0.90240   0.56810   Biso      1.000     H          0.140736  
         H24       1.0000    0.05450   0.68170   0.07180   Biso      1.000     H          0.14326   
         Mg1       1.0000    0.71292   0.91796   0.47244   Biso      1.000     Mg          1.375048  
         Mg2       1.0000    0.71218   0.44757   0.80044   Biso      1.000     Mg          1.5291540000000001  
         Mg3       1.0000    0.28708   0.41796   0.02756   Biso      1.000     Mg          1.375048  
         Mg4       1.0000    0.16590   0.17905   0.88176   Biso      1.000     Mg          1.41893   
         Mg5       1.0000    0.16590   0.32095   0.38176   Biso      1.000     Mg          1.41893   
         Mg6       1.0000    0.28708   0.08204   0.52756   Biso      1.000     Mg          1.375048  
         Mg7       1.0000    0.28782   0.55243   0.19956   Biso      1.000     Mg          1.5291540000000001  
         Mg8       1.0000    0.83410   0.67905   0.61824   Biso      1.000     Mg          1.41893   
         Mg9       1.0000    0.83410   0.82095   0.11824   Biso      1.000     Mg          1.41893   
         Mg10      1.0000    0.28782   0.94757   0.69956   Biso      1.000     Mg          1.5291540000000001  
         Mg11      1.0000    0.71218   0.05243   0.30044   Biso      1.000     Mg          1.5291540000000001  
         Mg12      1.0000    0.71292   0.58204   0.97244   Biso      1.000     Mg          1.375048  
         O1        1.0000    0.88920   0.91682   0.21959   Biso      1.000     O          -0.6893819999999999           
         O2        1.0000    0.93735   0.71732   0.59400   Biso      1.000     O          -0.629999           
         O3        1.0000    0.28638   0.29498   0.40222   Biso      1.000     O          -0.71005  
         O4        1.0000    0.61487   0.03407   0.43328   Biso      1.000     O          -0.61769  
         O5        1.0000    0.28638   0.20502   0.90222   Biso      1.000     O          -0.71005  
         O6        1.0000    0.93735   0.78268   0.09400   Biso      1.000     O          -0.629999           
         O7        1.0000    0.62800   0.12260   0.33336   Biso      1.000     O          -0.737371           
         O8        1.0000    0.61487   0.46593   0.93328   Biso      1.000     O          -0.61769  
         O9        1.0000    0.62800   0.37740   0.83336   Biso      1.000     O          -0.737371           
         O10       1.0000    0.81334   0.71296   0.00971   Biso      1.000     O          -0.7024699999999999           
         O11       1.0000    0.79333   0.52092   0.75711   Biso      1.000     O          -0.690075           
         O12       1.0000    0.37298   0.20991   0.60880   Biso      1.000     O          -0.564187           
         O13       1.0000    0.18690   0.59469   0.09496   Biso      1.000     O          -0.711831           
         O14       1.0000    0.18511   0.52388   0.98268   Biso      1.000     O          -0.65079  
         O15       1.0000    0.30523   0.09463   0.65073   Biso      1.000     O          -0.784455           
         O16       1.0000    0.32084   0.38236   0.94021   Biso      1.000     O          -0.62366  
         O17       1.0000    0.88920   0.58318   0.71959   Biso      1.000     O          -0.6893819999999999           
         O18       1.0000    0.81334   0.78704   0.50971   Biso      1.000     O          -0.7024699999999999           
         O19       1.0000    0.62702   0.79009   0.39120   Biso      1.000     O          -0.564187           
         O20       1.0000    0.37298   0.29009   0.10880   Biso      1.000     O          -0.564187           
         O21       1.0000    0.20667   0.47908   0.24289   Biso      1.000     O          -0.690075           
         O22       1.0000    0.18666   0.28704   0.99029   Biso      1.000     O          -0.7024699999999999           
         O23       1.0000    0.37200   0.62260   0.16664   Biso      1.000     O          -0.737371           
         O24       1.0000    0.38513   0.53407   0.06672   Biso      1.000     O          -0.61769  
         O25       1.0000    0.71362   0.79498   0.09778   Biso      1.000     O          -0.71005  
         O26       1.0000    0.06265   0.21732   0.90600   Biso      1.000     O          -0.629999           
         O27       1.0000    0.11080   0.41682   0.28041   Biso      1.000     O          -0.6893819999999999           
         O28       1.0000    0.81489   0.47612   0.01732   Biso      1.000     O          -0.65079  
         O29       1.0000    0.69477   0.90537   0.34927   Biso      1.000     O          -0.784455           
         O30       1.0000    0.67916   0.61764   0.05979   Biso      1.000     O          -0.62366  
         O31       1.0000    0.11080   0.08318   0.78041   Biso      1.000     O          -0.6893819999999999           
         O32       1.0000    0.06265   0.28268   0.40600   Biso      1.000     O          -0.629999           
         O33       1.0000    0.79333   0.97908   0.25711   Biso      1.000     O          -0.690075           
         O34       1.0000    0.71362   0.70502   0.59778   Biso      1.000     O          -0.71005  
         O35       1.0000    0.37200   0.87740   0.66664   Biso      1.000     O          -0.737371           
         O36       1.0000    0.18666   0.21296   0.49029   Biso      1.000     O          -0.7024699999999999           
         O37       1.0000    0.20667   0.02092   0.74289   Biso      1.000     O          -0.690075           
         O38       1.0000    0.62702   0.70991   0.89120   Biso      1.000     O          -0.564187           
         O39       1.0000    0.81310   0.09469   0.40504   Biso      1.000     O          -0.711832           
         O40       1.0000    0.81489   0.02388   0.51732   Biso      1.000     O          -0.65079  
         O41       1.0000    0.69477   0.59463   0.84927   Biso      1.000     O          -0.784455           
         O42       1.0000    0.67916   0.88236   0.55979   Biso      1.000     O          -0.62366  
         O43       1.0000    0.81310   0.40531   0.90504   Biso      1.000     O          -0.711831           
         O44       1.0000    0.30523   0.40537   0.15073   Biso      1.000     O          -0.784455           
         O45       1.0000    0.18511   0.97612   0.48268   Biso      1.000     O          -0.65079  
         O46       1.0000    0.18690   0.90531   0.59496   Biso      1.000     O          -0.711831           
         O47       1.0000    0.38513   0.96593   0.56672   Biso      1.000     O          -0.61769  
         O48       1.0000    0.32084   0.11764   0.44021   Biso      1.000     O          -0.62366 