
##########################################################################
#               Crystallographic Information Format file
#               Produced by PyCifRW module
#
#  This is a CIF file.  CIF has been adopted by the International
#  Union of Crystallography as the standard for data archiving and
#  transmission.
#
#  For information on this file format, follow the CIF links at
#  http://www.iucr.org
##########################################################################

data_image0

_cell_length_a                          9.334
_cell_length_b                          29.102
_cell_length_c                          7.702
_cell_angle_alpha                       90
_cell_angle_beta                        108.395
_cell_angle_gamma                       90
_symmetry_space_group_name_H-M          'P 1'
_symmetry_int_tables_number             1
loop_
  _symmetry_equiv_pos_as_xyz
         'x, y, z' 
loop_
  _atom_site_label
  _atom_site_occupancy
  _atom_site_fract_x
  _atom_site_fract_y
  _atom_site_fract_z
  _atom_site_thermal_displace_type
  _atom_site_B_iso_or_equiv
  _atom_site_type_symbol
  _atom_site_charge
         C1        1.0000    0.86910   0.94170   0.76790   Biso      1.000     C          0.626124  
         C2        1.0000    0.86910   0.55830   0.26790   Biso      1.000     C          0.626009  
         C3        1.0000    0.00980   0.56850   0.43070   Biso      1.000     C          -0.287049           
         C4        1.0000    0.95200   0.69290   0.50040   Biso      1.000     C          -0.18103  
         C5        1.0000    0.93840   0.64610   0.49100   Biso      1.000     C          0.052182000000000006          
         C6        1.0000    0.16470   0.63710   0.42870   Biso      1.000     C          0.041246  
         C7        1.0000    0.18620   0.68410   0.44040   Biso      1.000     C          -0.185951           
         C8        1.0000    0.07730   0.71370   0.47030   Biso      1.000     C          0.121478  
         C9        1.0000    0.14910   0.58820   0.96830   Biso      1.000     C          0.578431  
         C10       1.0000    0.12690   0.63990   0.96730   Biso      1.000     C          -0.009912           
         C11       1.0000    0.24580   0.66910   0.96760   Biso      1.000     C          -0.104726           
         C12       1.0000    0.99260   0.84060   0.46850   Biso      1.000     C          -0.10679200000000001          
         C13       1.0000    0.00980   0.93150   0.93070   Biso      1.000     C          -0.287166           
         C14       1.0000    0.22890   0.71610   0.97180   Biso      1.000     C          -0.14541500000000002          
         C15       1.0000    0.09510   0.73660   0.97230   Biso      1.000     C          0.048001  
         C16       1.0000    0.97790   0.70640   0.97070   Biso      1.000     C          -0.13891199999999998          
         C17       1.0000    0.09510   0.76340   0.47230   Biso      1.000     C          0.047847  
         C18       1.0000    0.99260   0.65940   0.96850   Biso      1.000     C          -0.10667  
         C19       1.0000    0.22890   0.78390   0.47180   Biso      1.000     C          -0.14537  
         C20       1.0000    0.07730   0.78630   0.97030   Biso      1.000     C          0.121243  
         C21       1.0000    0.18620   0.81590   0.94040   Biso      1.000     C          -0.18598399999999998          
         C22       1.0000    0.24580   0.83090   0.46760   Biso      1.000     C          -0.104726           
         C23       1.0000    0.16470   0.86290   0.92870   Biso      1.000     C          0.041339999999999995          
         C24       1.0000    0.12690   0.86010   0.46730   Biso      1.000     C          -0.009807999999999999         
         C25       1.0000    0.93840   0.85390   0.99100   Biso      1.000     C          0.051822  
         C26       1.0000    0.97790   0.79360   0.47070   Biso      1.000     C          -0.13888699999999998          
         C27       1.0000    0.85090   0.41180   0.03170   Biso      1.000     C          0.578451  
         C28       1.0000    0.87310   0.36010   0.03270   Biso      1.000     C          -0.009868           
         C29       1.0000    0.75420   0.33090   0.03240   Biso      1.000     C          -0.10468599999999999          
         C30       1.0000    0.85090   0.08820   0.53170   Biso      1.000     C          0.578635  
         C31       1.0000    0.87310   0.13990   0.53270   Biso      1.000     C          -0.009812999999999999         
         C32       1.0000    0.75420   0.16910   0.53240   Biso      1.000     C          -0.10474100000000001          
         C33       1.0000    0.13090   0.05830   0.23210   Biso      1.000     C          0.626141  
         C34       1.0000    0.77110   0.21610   0.52820   Biso      1.000     C          -0.145452           
         C35       1.0000    0.99020   0.06850   0.06930   Biso      1.000     C          -0.287174           
         C36       1.0000    0.90490   0.23660   0.52770   Biso      1.000     C          0.047824  
         C37       1.0000    0.02210   0.20640   0.52930   Biso      1.000     C          -0.138979           
         C38       1.0000    0.04800   0.19290   0.99960   Biso      1.000     C          -0.180981           
         C39       1.0000    0.00740   0.15940   0.53150   Biso      1.000     C          -0.106773           
         C40       1.0000    0.06160   0.14610   0.00900   Biso      1.000     C          0.05185599999999999           
         C41       1.0000    0.92270   0.28630   0.52970   Biso      1.000     C          0.121332  
         C42       1.0000    0.81380   0.31590   0.55960   Biso      1.000     C          -0.18603699999999998          
         C43       1.0000    0.83530   0.13710   0.07130   Biso      1.000     C          0.041364  
         C44       1.0000    0.83530   0.36290   0.57130   Biso      1.000     C          0.041002  
         C45       1.0000    0.81380   0.18410   0.05960   Biso      1.000     C          -0.18596  
         C46       1.0000    0.06160   0.35390   0.50900   Biso      1.000     C          0.05181   
         C47       1.0000    0.92270   0.21370   0.02970   Biso      1.000     C          0.121153  
         C48       1.0000    0.04800   0.30710   0.49960   Biso      1.000     C          -0.181001           
         C49       1.0000    0.00740   0.34060   0.03150   Biso      1.000     C          -0.10673099999999999          
         C50       1.0000    0.99020   0.43150   0.56930   Biso      1.000     C          -0.28726399999999996          
         C51       1.0000    0.02210   0.29360   0.02930   Biso      1.000     C          -0.13883900000000002          
         C52       1.0000    0.90490   0.26340   0.02770   Biso      1.000     C          0.048172  
         C53       1.0000    0.13090   0.44170   0.73210   Biso      1.000     C          0.6258560000000001  
         C54       1.0000    0.77110   0.28390   0.02820   Biso      1.000     C          -0.14535  
         C55       1.0000    0.14910   0.91180   0.46830   Biso      1.000     C          0.578654  
         C56       1.0000    0.95200   0.80710   0.00040   Biso      1.000     C          -0.180999           
         Cu1       1.0000    0.66907   0.99836   0.51519   Biso      1.000     Cu          0.864607  
         Cu2       1.0000    0.00000   0.00000   0.50000   Biso      1.000     Cu          0.891067  
         Cu3       1.0000    0.66907   0.50164   0.01519   Biso      1.000     Cu          0.856547  
         Cu4       1.0000    0.33093   0.00164   0.48481   Biso      1.000     Cu          0.864474  
         Cu5       1.0000    0.00000   0.50000   0.00000   Biso      1.000     Cu          0.8988379999999999  
         Cu6       1.0000    0.33093   0.49836   0.98481   Biso      1.000     Cu          0.8521120000000001  
         H1        1.0000    0.87860   0.71070   0.52640   Biso      1.000     H          0.13859100000000002           
         H2        1.0000    0.09640   0.55340   0.41190   Biso      1.000     H          0.150936  
         H3        1.0000    0.99620   0.55610   0.54130   Biso      1.000     H          0.160702  
         H4        1.0000    0.99620   0.94390   0.04130   Biso      1.000     H          0.160578  
         H5        1.0000    0.66300   0.34320   0.03510   Biso      1.000     H          0.130874  
         H6        1.0000    0.68960   0.26520   0.02560   Biso      1.000     H          0.109202  
         H7        1.0000    0.00380   0.44390   0.45870   Biso      1.000     H          0.160555  
         H8        1.0000    0.90360   0.44660   0.58810   Biso      1.000     H          0.151004  
         H9        1.0000    0.11400   0.28130   0.02880   Biso      1.000     H          0.11081099999999999           
         H10       1.0000    0.12140   0.28930   0.47360   Biso      1.000     H          0.138561  
         H11       1.0000    0.08830   0.35930   0.03220   Biso      1.000     H          0.13288599999999998           
         H12       1.0000    0.14540   0.36730   0.48870   Biso      1.000     H          0.11845699999999999           
         H13       1.0000    0.76410   0.38180   0.59660   Biso      1.000     H          0.129138  
         H14       1.0000    0.72550   0.19640   0.07180   Biso      1.000     H          0.136247  
         H15       1.0000    0.72550   0.30360   0.57180   Biso      1.000     H          0.13626300000000002           
         H16       1.0000    0.76410   0.11820   0.09660   Biso      1.000     H          0.129385  
         H17       1.0000    0.08830   0.14070   0.53220   Biso      1.000     H          0.132819  
         H18       1.0000    0.14540   0.13270   0.98870   Biso      1.000     H          0.11835699999999999           
         H19       1.0000    0.11400   0.21870   0.52880   Biso      1.000     H          0.110733  
         H20       1.0000    0.12140   0.21070   0.97360   Biso      1.000     H          0.138526  
         H21       1.0000    0.68960   0.23480   0.52560   Biso      1.000     H          0.109081  
         H22       1.0000    0.90360   0.05340   0.08810   Biso      1.000     H          0.151229  
         H23       1.0000    0.00380   0.05610   0.95870   Biso      1.000     H          0.160601  
         H24       1.0000    0.66300   0.15680   0.53510   Biso      1.000     H          0.13086099999999998           
         H25       1.0000    0.85460   0.63270   0.51130   Biso      1.000     H          0.118655  
         H26       1.0000    0.23590   0.61820   0.40340   Biso      1.000     H          0.129184  
         H27       1.0000    0.09640   0.94660   0.91190   Biso      1.000     H          0.151223  
         H28       1.0000    0.33700   0.84320   0.46490   Biso      1.000     H          0.130854  
         H29       1.0000    0.91170   0.64070   0.96780   Biso      1.000     H          0.13292400000000001           
         H30       1.0000    0.31040   0.73480   0.97440   Biso      1.000     H          0.10915799999999999           
         H31       1.0000    0.27450   0.80360   0.92820   Biso      1.000     H          0.13625   
         H32       1.0000    0.23590   0.88180   0.90340   Biso      1.000     H          0.129368  
         H33       1.0000    0.85460   0.86730   0.01130   Biso      1.000     H          0.118335  
         H34       1.0000    0.87860   0.78930   0.02640   Biso      1.000     H          0.138534  
         H35       1.0000    0.88600   0.71870   0.97120   Biso      1.000     H          0.11077100000000001           
         H36       1.0000    0.88600   0.78130   0.47120   Biso      1.000     H          0.110748  
         H37       1.0000    0.31040   0.76520   0.47440   Biso      1.000     H          0.109116  
         H38       1.0000    0.27450   0.69640   0.42820   Biso      1.000     H          0.13631   
         H39       1.0000    0.91170   0.85930   0.46780   Biso      1.000     H          0.132805  
         H40       1.0000    0.33700   0.65680   0.96490   Biso      1.000     H          0.130859  
         N1        1.0000    0.61850   0.46300   0.45860   Biso      1.000     N          -0.317603           
         N2        1.0000    0.57750   0.48010   0.31810   Biso      1.000     N          0.46768999999999994           
         N3        1.0000    0.53510   0.49900   0.17280   Biso      1.000     N          -0.561541           
         N4        1.0000    0.38150   0.53700   0.54140   Biso      1.000     N          -0.318208           
         N5        1.0000    0.78800   0.51104   0.84900   Biso      1.000     N          -0.548133           
         N6        1.0000    0.46490   0.50100   0.82720   Biso      1.000     N          -0.56298  
         N7        1.0000    0.26690   0.42880   0.37560   Biso      1.000     N          -0.335244           
         N8        1.0000    0.23850   0.45940   0.26460   Biso      1.000     N          0.418379  
         N9        1.0000    0.73310   0.57120   0.62440   Biso      1.000     N          -0.33794  
         N10       1.0000    0.21200   0.48896   0.15100   Biso      1.000     N          -0.547063           
         N11       1.0000    0.03960   0.88140   0.95420   Biso      1.000     N          0.194624  
         N12       1.0000    0.96040   0.11860   0.04580   Biso      1.000     N          0.194665  
         N13       1.0000    0.76150   0.54060   0.73540   Biso      1.000     N          0.417459  
         N14       1.0000    0.42250   0.51990   0.68190   Biso      1.000     N          0.467937  
         N15       1.0000    0.42250   0.98010   0.18190   Biso      1.000     N          0.467351  
         N16       1.0000    0.46490   0.99900   0.32720   Biso      1.000     N          -0.567318           
         N17       1.0000    0.23850   0.04060   0.76460   Biso      1.000     N          0.418757  
         N18       1.0000    0.26690   0.07120   0.87560   Biso      1.000     N          -0.331963           
         N19       1.0000    0.96040   0.38140   0.54580   Biso      1.000     N          0.194442  
         N20       1.0000    0.38150   0.96300   0.04140   Biso      1.000     N          -0.324112           
         N21       1.0000    0.57750   0.01990   0.81810   Biso      1.000     N          0.467354  
         N22       1.0000    0.61850   0.03700   0.95860   Biso      1.000     N          -0.32416  
         N23       1.0000    0.21200   0.01104   0.65100   Biso      1.000     N          -0.545226           
         N24       1.0000    0.03960   0.61860   0.45420   Biso      1.000     N          0.19455699999999998           
         N25       1.0000    0.53510   0.00100   0.67280   Biso      1.000     N          -0.5673020000000001           
         N26       1.0000    0.73310   0.92880   0.12440   Biso      1.000     N          -0.331869           
         N27       1.0000    0.76150   0.95940   0.23540   Biso      1.000     N          0.418837  
         N28       1.0000    0.78800   0.98896   0.34900   Biso      1.000     N          -0.545187           
         O1        1.0000    0.73330   0.42753   0.04820   Biso      1.000     O          -0.537359           
         O2        1.0000    0.21770   0.41092   0.80770   Biso      1.000     O          -0.556937           
         O3        1.0000    0.14240   0.01581   0.27380   Biso      1.000     O          -0.590534           
         O4        1.0000    0.21770   0.08908   0.30770   Biso      1.000     O          -0.557463           
         O5        1.0000    0.96110   0.43433   0.01160   Biso      1.000     O          -0.558847           
         O6        1.0000    0.96110   0.06567   0.51160   Biso      1.000     O          -0.560735           
         O7        1.0000    0.14240   0.48419   0.77380   Biso      1.000     O          -0.590677           
         O8        1.0000    0.26670   0.92753   0.45180   Biso      1.000     O          -0.5390560000000001           
         O9        1.0000    0.85760   0.51581   0.22620   Biso      1.000     O          -0.591007           
         O10       1.0000    0.78230   0.58908   0.19230   Biso      1.000     O          -0.556736           
         O11       1.0000    0.03890   0.56567   0.98840   Biso      1.000     O          -0.559669           
         O12       1.0000    0.26670   0.57247   0.95180   Biso      1.000     O          -0.5374869999999999           
         O13       1.0000    0.85760   0.98419   0.72620   Biso      1.000     O          -0.590499           
         O14       1.0000    0.78230   0.91092   0.69230   Biso      1.000     O          -0.557441           
         O15       1.0000    0.03890   0.93433   0.48840   Biso      1.000     O          -0.560743           
         O16       1.0000    0.73330   0.07247   0.54820   Biso      1.000     O          -0.539075 