
##########################################################################
#               Crystallographic Information Format file
#               Produced by PyCifRW module
#
#  This is a CIF file.  CIF has been adopted by the International
#  Union of Crystallography as the standard for data archiving and
#  transmission.
#
#  For information on this file format, follow the CIF links at
#  http://www.iucr.org
##########################################################################

data_image0

_cell_length_a                          13.5488
_cell_length_b                          21.114
_cell_length_c                          21.114
_cell_angle_alpha                       84.0912
_cell_angle_beta                        71.2857
_cell_angle_gamma                       71.2856
_symmetry_space_group_name_H-M          'P 1'
_symmetry_int_tables_number             1
loop_
  _symmetry_equiv_pos_as_xyz
         'x, y, z' 
loop_
  _atom_site_label
  _atom_site_occupancy
  _atom_site_fract_x
  _atom_site_fract_y
  _atom_site_fract_z
  _atom_site_thermal_displace_type
  _atom_site_B_iso_or_equiv
  _atom_site_type_symbol
  _atom_site_charge
         C1        1.0000    0.72440   0.28600   0.25020   Biso      1.000     C          0.025265  
         C2        1.0000    0.37734   0.50126   0.75306   Biso      1.000     C          0.20612   
         C3        1.0000    0.30753   0.46896   0.74558   Biso      1.000     C          -0.166207           
         C4        1.0000    0.33928   0.39957   0.74447   Biso      1.000     C          -0.002669           
         C5        1.0000    0.43911   0.36360   0.75458   Biso      1.000     C          -0.118007           
         C6        1.0000    0.50674   0.39755   0.76537   Biso      1.000     C          -0.007516           
         C7        1.0000    0.26668   0.36469   0.73235   Biso      1.000     C          0.637717  
         C8        1.0000    0.47503   0.46692   0.76342   Biso      1.000     C          -0.160613           
         C9        1.0000    0.61076   0.35994   0.77954   Biso      1.000     C          0.637247  
         C10       1.0000    0.19260   0.82170   0.80990   Biso      1.000     C          -0.055044           
         C11       1.0000    0.18100   0.78680   0.86860   Biso      1.000     C          -0.08008  
         C12       1.0000    0.25513   0.81881   0.68833   Biso      1.000     C          -0.062658           
         C13       1.0000    0.30510   0.78300   0.62920   Biso      1.000     C          -0.084233           
         C14       1.0000    0.21920   0.89280   0.68600   Biso      1.000     C          0.443082  
         C15       1.0000    0.15580   0.89460   0.81020   Biso      1.000     C          0.448148  
         C16       1.0000    0.23940   0.78600   0.75020   Biso      1.000     C          0.023068  
         C17       1.0000    0.20537   0.03308   0.73658   Biso      1.000     C          -0.162984           
         C18       1.0000    0.36060   0.60540   0.68980   Biso      1.000     C          0.449527  
         C19       1.0000    0.21730   0.71700   0.87080   Biso      1.000     C          -0.084843           
         C20       1.0000    0.69247   0.53104   0.25442   Biso      1.000     C          -0.166208           
         C21       1.0000    0.62266   0.49874   0.24694   Biso      1.000     C          0.206121  
         C22       1.0000    0.52497   0.53308   0.23658   Biso      1.000     C          -0.160613           
         C23       1.0000    0.63940   0.39460   0.31020   Biso      1.000     C          0.449527  
         C24       1.0000    0.70200   0.39280   0.18600   Biso      1.000     C          0.441665  
         C25       1.0000    0.78270   0.28300   0.12920   Biso      1.000     C          -0.084843           
         C26       1.0000    0.29800   0.60720   0.81400   Biso      1.000     C          0.441665  
         C27       1.0000    0.73773   0.31881   0.18833   Biso      1.000     C          -0.064572           
         C28       1.0000    0.67580   0.32170   0.30990   Biso      1.000     C          -0.055415           
         C29       1.0000    0.25024   0.14006   0.72046   Biso      1.000     C          0.638527  
         C30       1.0000    0.27560   0.71400   0.74980   Biso      1.000     C          0.025265  
         C31       1.0000    0.32420   0.67830   0.69010   Biso      1.000     C          -0.055415           
         C32       1.0000    0.33640   0.71320   0.63140   Biso      1.000     C          -0.0821   
         C33       1.0000    0.26227   0.68119   0.81167   Biso      1.000     C          -0.064572           
         C34       1.0000    0.66360   0.28680   0.36860   Biso      1.000     C          -0.082101           
         C35       1.0000    0.66072   0.60043   0.25553   Biso      1.000     C          -0.002669           
         C36       1.0000    0.13166   0.99874   0.74694   Biso      1.000     C          0.205018  
         C37       1.0000    0.98332   0.10043   0.75553   Biso      1.000     C          -0.005212           
         C38       1.0000    0.63137   0.23235   0.63531   Biso      1.000     C          0.635356  
         C39       1.0000    0.90429   0.26537   0.60245   Biso      1.000     C          -0.006721           
         C40       1.0000    0.80271   0.25458   0.63640   Biso      1.000     C          -0.11548  
         C41       1.0000    0.73885   0.24447   0.60043   Biso      1.000     C          -0.004398           
         C42       1.0000    0.77649   0.24558   0.53104   Biso      1.000     C          -0.166074           
         C43       1.0000    0.87860   0.25306   0.49874   Biso      1.000     C          0.205579  
         C44       1.0000    0.97070   0.27954   0.64006   Biso      1.000     C          0.637405  
         C45       1.0000    0.94195   0.26342   0.53308   Biso      1.000     C          -0.162052           
         C46       1.0000    0.90520   0.31400   0.39280   Biso      1.000     C          0.441171  
         C47       1.0000    0.93430   0.37080   0.28300   Biso      1.000     C          -0.085157           
         C48       1.0000    0.94346   0.31167   0.31881   Biso      1.000     C          -0.061736           
         C49       1.0000    0.04960   0.13140   0.28680   Biso      1.000     C          -0.080041           
         C50       1.0000    0.00250   0.19010   0.32170   Biso      1.000     C          -0.0565   
         C51       1.0000    0.98960   0.24980   0.28600   Biso      1.000     C          0.024115  
         C52       1.0000    0.96600   0.18980   0.39460   Biso      1.000     C          0.447668  
         C53       1.0000    0.02207   0.03104   0.75442   Biso      1.000     C          -0.164378           
         C54       1.0000    0.02540   0.25020   0.21400   Biso      1.000     C          0.022651  
         C55       1.0000    0.96780   0.36860   0.21320   Biso      1.000     C          -0.081402           
         C56       1.0000    0.05729   0.13640   0.74542   Biso      1.000     C          -0.116378           
         C57       1.0000    0.16966   0.10245   0.73463   Biso      1.000     C          -0.008481           
         C58       1.0000    0.39030   0.22046   0.85994   Biso      1.000     C          0.634616  
         C59       1.0000    0.99903   0.26765   0.86469   Biso      1.000     C          0.632357  
         C60       1.0000    0.27211   0.23463   0.89755   Biso      1.000     C          -0.009489           
         C61       1.0000    0.19369   0.24542   0.86360   Biso      1.000     C          -0.117735           
         C62       1.0000    0.01430   0.30990   0.17830   Biso      1.000     C          -0.053426           
         C63       1.0000    0.08375   0.25553   0.89957   Biso      1.000     C          -0.000749           
         C64       1.0000    0.13040   0.24694   0.00126   Biso      1.000     C          0.208062  
         C65       1.0000    0.23845   0.23658   0.96692   Biso      1.000     C          -0.170939           
         C66       1.0000    0.05040   0.31020   0.10540   Biso      1.000     C          0.448592  
         C67       1.0000    0.11200   0.18600   0.10720   Biso      1.000     C          0.441969  
         C68       1.0000    0.08810   0.12920   0.21700   Biso      1.000     C          -0.084164           
         C69       1.0000    0.07394   0.18833   0.18119   Biso      1.000     C          -0.063626           
         C70       1.0000    0.05311   0.25442   0.96896   Biso      1.000     C          -0.166297           
         C71       1.0000    0.56089   0.63640   0.24542   Biso      1.000     C          -0.118007           
         C72       1.0000    0.86372   0.13531   0.76765   Biso      1.000     C          0.637337  
         C73       1.0000    0.73332   0.63531   0.26765   Biso      1.000     C          0.637717  
         C74       1.0000    0.22351   0.75442   0.46896   Biso      1.000     C          -0.166079           
         C75       1.0000    0.26115   0.75553   0.39957   Biso      1.000     C          -0.004395           
         C76       1.0000    0.19729   0.74542   0.36360   Biso      1.000     C          -0.11548  
         C77       1.0000    0.09571   0.73463   0.39755   Biso      1.000     C          -0.006719           
         C78       1.0000    0.36863   0.76765   0.36469   Biso      1.000     C          0.635356  
         C79       1.0000    0.02930   0.72046   0.35994   Biso      1.000     C          0.637405  
         C80       1.0000    0.97460   0.74980   0.78600   Biso      1.000     C          0.022652  
         C81       1.0000    0.98570   0.69010   0.82170   Biso      1.000     C          -0.053432           
         C82       1.0000    0.03220   0.63140   0.78680   Biso      1.000     C          -0.081396           
         C83       1.0000    0.94689   0.74558   0.03104   Biso      1.000     C          -0.166306           
         C84       1.0000    0.92606   0.81167   0.81881   Biso      1.000     C          -0.06363  
         C85       1.0000    0.88800   0.81400   0.89280   Biso      1.000     C          0.44197   
         C86       1.0000    0.94960   0.68980   0.89460   Biso      1.000     C          0.448593  
         C87       1.0000    0.76155   0.76342   0.03308   Biso      1.000     C          -0.170947           
         C88       1.0000    0.60970   0.77954   0.14006   Biso      1.000     C          0.634616  
         C89       1.0000    0.00097   0.73235   0.13531   Biso      1.000     C          0.632356  
         C90       1.0000    0.72789   0.76537   0.10245   Biso      1.000     C          -0.009488           
         C91       1.0000    0.80631   0.75458   0.13640   Biso      1.000     C          -0.117735           
         C92       1.0000    0.49326   0.60245   0.23463   Biso      1.000     C          -0.007516           
         C93       1.0000    0.91625   0.74447   0.10043   Biso      1.000     C          -0.000744           
         C94       1.0000    0.91190   0.87080   0.78300   Biso      1.000     C          -0.084161           
         C95       1.0000    0.05805   0.73658   0.46692   Biso      1.000     C          -0.162061           
         C96       1.0000    0.12140   0.74694   0.50126   Biso      1.000     C          0.205588  
         C97       1.0000    0.09480   0.68600   0.60720   Biso      1.000     C          0.441172  
         C98       1.0000    0.38924   0.64006   0.22046   Biso      1.000     C          0.637247  
         C99       1.0000    0.76060   0.21400   0.24980   Biso      1.000     C          0.023068  
         C100      1.0000    0.80740   0.17830   0.19010   Biso      1.000     C          -0.055044           
         C101      1.0000    0.81900   0.21320   0.13140   Biso      1.000     C          -0.08008  
         C102      1.0000    0.74487   0.18119   0.31167   Biso      1.000     C          -0.062658           
         C103      1.0000    0.69490   0.21700   0.37080   Biso      1.000     C          -0.084233           
         C104      1.0000    0.78080   0.10720   0.31400   Biso      1.000     C          0.443082  
         C105      1.0000    0.84420   0.10540   0.18980   Biso      1.000     C          0.448148  
         C106      1.0000    0.03400   0.81020   0.60540   Biso      1.000     C          0.447669  
         C107      1.0000    0.86834   0.00126   0.25306   Biso      1.000     C          0.205018  
         C108      1.0000    0.79463   0.96692   0.26342   Biso      1.000     C          -0.162984           
         C109      1.0000    0.01668   0.89957   0.24447   Biso      1.000     C          -0.005212           
         C110      1.0000    0.94271   0.86360   0.25458   Biso      1.000     C          -0.116378           
         C111      1.0000    0.83034   0.89755   0.26537   Biso      1.000     C          -0.008481           
         C112      1.0000    0.13628   0.86469   0.23235   Biso      1.000     C          0.637337  
         C113      1.0000    0.74976   0.85994   0.27954   Biso      1.000     C          0.638527  
         C114      1.0000    0.01040   0.75020   0.71400   Biso      1.000     C          0.024116  
         C115      1.0000    0.99750   0.80990   0.67830   Biso      1.000     C          -0.056506           
         C116      1.0000    0.95040   0.86860   0.71320   Biso      1.000     C          -0.080035           
         C117      1.0000    0.05654   0.68833   0.68119   Biso      1.000     C          -0.06174  
         C118      1.0000    0.06570   0.62920   0.71700   Biso      1.000     C          -0.085153           
         C119      1.0000    0.97793   0.96896   0.24558   Biso      1.000     C          -0.164378           
         C120      1.0000    0.86960   0.75306   0.99874   Biso      1.000     C          0.208072  
         Ca1       1.0000    0.88186   0.68533   0.30487   Biso      1.000     Ca          1.470203  
         Ca2       1.0000    0.56719   0.80487   0.31467   Biso      1.000     Ca          1.470627  
         Ca3       1.0000    0.18673   0.69513   0.18533   Biso      1.000     Ca          1.470111  
         Ca4       1.0000    0.37206   0.81467   0.19513   Biso      1.000     Ca          1.470157  
         Ca5       1.0000    0.62794   0.18533   0.80487   Biso      1.000     Ca          1.470157  
         Ca6       1.0000    0.11814   0.31467   0.69513   Biso      1.000     Ca          1.470203  
         Ca7       1.0000    0.43281   0.19513   0.68533   Biso      1.000     Ca          1.470627  
         Ca8       1.0000    0.81327   0.30487   0.81467   Biso      1.000     Ca          1.470111  
         H1        1.0000    0.90550   0.41250   0.30550   Biso      1.000     H          0.132176  
         H2        1.0000    0.85300   0.18900   0.09060   Biso      1.000     H          0.130098  
         H3        1.0000    0.68200   0.19450   0.41250   Biso      1.000     H          0.132653  
         H4        1.0000    0.71960   0.99030   0.26930   Biso      1.000     H          0.139338  
         H5        1.0000    0.02650   0.99420   0.24120   Biso      1.000     H          0.130864  
         H6        1.0000    0.96800   0.81610   0.25430   Biso      1.000     H          0.112832  
         H7        1.0000    0.94360   0.90940   0.68900   Biso      1.000     H          0.129878  
         H8        1.0000    0.09450   0.58750   0.69450   Biso      1.000     H          0.132176  
         H9        1.0000    0.26770   0.75880   0.49420   Biso      1.000     H          0.131133  
         H10       1.0000    0.53840   0.68390   0.24570   Biso      1.000     H          0.112781  
         H11       1.0000    0.22230   0.74570   0.31610   Biso      1.000     H          0.113049  
         H12       1.0000    0.04200   0.59060   0.81100   Biso      1.000     H          0.130466  
         H13       1.0000    0.87650   0.91250   0.80550   Biso      1.000     H          0.132563  
         H14       1.0000    0.70990   0.76930   0.00970   Biso      1.000     H          0.149023  
         H15       1.0000    0.02070   0.74120   0.00580   Biso      1.000     H          0.129848  
         H16       1.0000    0.78410   0.75430   0.18390   Biso      1.000     H          0.112593  
         H17       1.0000    0.98890   0.73070   0.49030   Biso      1.000     H          0.139666  
         H18       1.0000    0.76190   0.50580   0.25880   Biso      1.000     H          0.129899  
         H19       1.0000    0.47920   0.50970   0.23070   Biso      1.000     H          0.138267  
         H20       1.0000    0.78900   0.30550   0.08750   Biso      1.000     H          0.132817  
         H21       1.0000    0.05640   0.09060   0.31100   Biso      1.000     H          0.129879  
         H22       1.0000    0.03200   0.18390   0.74570   Biso      1.000     H          0.112832  
         H23       1.0000    0.97350   0.00580   0.75880   Biso      1.000     H          0.130864  
         H24       1.0000    0.28040   0.00970   0.73070   Biso      1.000     H          0.139338  
         H25       1.0000    0.31800   0.80550   0.58750   Biso      1.000     H          0.132653  
         H26       1.0000    0.14700   0.81100   0.90940   Biso      1.000     H          0.130098  
         H27       1.0000    0.46160   0.31610   0.75430   Biso      1.000     H          0.112781  
         H28       1.0000    0.23810   0.49420   0.74120   Biso      1.000     H          0.129899  
         H29       1.0000    0.01110   0.26930   0.50970   Biso      1.000     H          0.139666  
         H30       1.0000    0.52080   0.49030   0.76930   Biso      1.000     H          0.138267  
         H31       1.0000    0.36740   0.68900   0.59060   Biso      1.000     H          0.130435  
         H32       1.0000    0.73230   0.24120   0.50580   Biso      1.000     H          0.131133  
         H33       1.0000    0.77770   0.25430   0.68390   Biso      1.000     H          0.113049  
         H34       1.0000    0.95800   0.40940   0.18900   Biso      1.000     H          0.130466  
         H35       1.0000    0.29010   0.23070   0.99030   Biso      1.000     H          0.149023  
         H36       1.0000    0.97930   0.25880   0.99420   Biso      1.000     H          0.129847  
         H37       1.0000    0.21590   0.24570   0.81610   Biso      1.000     H          0.112593  
         H38       1.0000    0.63260   0.31100   0.40940   Biso      1.000     H          0.130435  
         H39       1.0000    0.21100   0.69450   0.91250   Biso      1.000     H          0.132817  
         H40       1.0000    0.12350   0.08750   0.19450   Biso      1.000     H          0.132563  
         N1        1.0000    0.91664   0.25127   0.42545   Biso      1.000     N          -0.23022  
         N2        1.0000    0.34209   0.57455   0.75127   Biso      1.000     N          -0.230246           
         N3        1.0000    0.90664   0.75127   0.92545   Biso      1.000     N          -0.231034           
         N4        1.0000    0.08336   0.74873   0.57455   Biso      1.000     N          -0.230221           
         N5        1.0000    0.83209   0.07455   0.25127   Biso      1.000     N          -0.230802           
         N6        1.0000    0.65791   0.42545   0.24873   Biso      1.000     N          -0.230246           
         N7        1.0000    0.09336   0.24873   0.07455   Biso      1.000     N          -0.231033           
         N8        1.0000    0.16791   0.92545   0.74873   Biso      1.000     N          -0.230802           
         O1        1.0000    0.16948   0.39580   0.74104   Biso      1.000     O          -0.627793           
         O2        1.0000    0.31032   0.30509   0.71127   Biso      1.000     O          -0.718281           
         O3        1.0000    0.67609   0.39001   0.77821   Biso      1.000     O          -0.640886           
         O4        1.0000    0.62731   0.29903   0.79415   Biso      1.000     O          -0.711281           
         O5        1.0000    0.22994   0.92402   0.63510   Biso      1.000     O          -0.416461           
         O6        1.0000    0.11596   0.92735   0.86073   Biso      1.000     O          -0.42623  
         O7        1.0000    0.80632   0.10420   0.75896   Biso      1.000     O          -0.627284           
         O8        1.0000    0.82668   0.19491   0.78873   Biso      1.000     O          -0.718402           
         O9        1.0000    0.34431   0.10999   0.72179   Biso      1.000     O          -0.640313           
         O10       1.0000    0.97669   0.13927   0.42735   Biso      1.000     O          -0.426283           
         O11       1.0000    0.56528   0.24104   0.60420   Biso      1.000     O          -0.626645           
         O12       1.0000    0.61541   0.21127   0.69491   Biso      1.000     O          -0.718207           
         O13       1.0000    0.06610   0.27821   0.60999   Biso      1.000     O          -0.641993           
         O14       1.0000    0.92634   0.29415   0.70097   Biso      1.000     O          -0.711981           
         O15       1.0000    0.15396   0.13510   0.07598   Biso      1.000     O          -0.414707           
         O16       1.0000    0.04331   0.36073   0.07265   Biso      1.000     O          -0.427468           
         O17       1.0000    0.91052   0.25896   0.89580   Biso      1.000     O          -0.624959           
         O18       1.0000    0.02159   0.28873   0.80509   Biso      1.000     O          -0.717502           
         O19       1.0000    0.45430   0.22179   0.89001   Biso      1.000     O          -0.638225           
         O20       1.0000    0.42146   0.20585   0.79903   Biso      1.000     O          -0.711121           
         O21       1.0000    0.22049   0.20097   0.70585   Biso      1.000     O          -0.712116           
         O22       1.0000    0.86504   0.36490   0.42402   Biso      1.000     O          -0.414007           
         O23       1.0000    0.71094   0.42402   0.13510   Biso      1.000     O          -0.414374           
         O24       1.0000    0.59596   0.42735   0.36073   Biso      1.000     O          -0.427545           
         O25       1.0000    0.57854   0.79415   0.20097   Biso      1.000     O          -0.711121           
         O26       1.0000    0.54570   0.77821   0.10999   Biso      1.000     O          -0.638225           
         O27       1.0000    0.97841   0.71127   0.19491   Biso      1.000     O          -0.717502           
         O28       1.0000    0.08948   0.74104   0.10420   Biso      1.000     O          -0.624959           
         O29       1.0000    0.95669   0.63927   0.92735   Biso      1.000     O          -0.427468           
         O30       1.0000    0.84604   0.86490   0.92402   Biso      1.000     O          -0.414707           
         O31       1.0000    0.07366   0.70585   0.29903   Biso      1.000     O          -0.711981           
         O32       1.0000    0.93390   0.72179   0.39001   Biso      1.000     O          -0.641993           
         O33       1.0000    0.38459   0.78873   0.30509   Biso      1.000     O          -0.718207           
         O34       1.0000    0.43472   0.75896   0.39580   Biso      1.000     O          -0.626645           
         O35       1.0000    0.40404   0.57265   0.63927   Biso      1.000     O          -0.427545           
         O36       1.0000    0.02331   0.86073   0.57265   Biso      1.000     O          -0.426283           
         O37       1.0000    0.77951   0.79903   0.29415   Biso      1.000     O          -0.712116           
         O38       1.0000    0.65569   0.89001   0.27821   Biso      1.000     O          -0.640313           
         O39       1.0000    0.17332   0.80509   0.21127   Biso      1.000     O          -0.718402           
         O40       1.0000    0.19368   0.89580   0.24104   Biso      1.000     O          -0.627284           
         O41       1.0000    0.88404   0.07265   0.13927   Biso      1.000     O          -0.42623  
         O42       1.0000    0.77006   0.07598   0.36490   Biso      1.000     O          -0.416461           
         O43       1.0000    0.37269   0.70097   0.20585   Biso      1.000     O          -0.711281           
         O44       1.0000    0.32391   0.60999   0.22179   Biso      1.000     O          -0.640886           
         O45       1.0000    0.68968   0.69491   0.28873   Biso      1.000     O          -0.718281           
         O46       1.0000    0.83052   0.60420   0.25896   Biso      1.000     O          -0.627793           
         O47       1.0000    0.13496   0.63510   0.57598   Biso      1.000     O          -0.414007           
         O48       1.0000    0.28906   0.57598   0.86490   Biso      1.000     O          -0.414374 