
##########################################################################
#               Crystallographic Information Format file
#               Produced by PyCifRW module
#
#  This is a CIF file.  CIF has been adopted by the International
#  Union of Crystallography as the standard for data archiving and
#  transmission.
#
#  For information on this file format, follow the CIF links at
#  http://www.iucr.org
##########################################################################

data_image0

_cell_length_a                          6.3108
_cell_length_b                          12.639
_cell_length_c                          15.631
_cell_angle_alpha                       95.723
_cell_angle_beta                        99.878
_cell_angle_gamma                       97.86
_symmetry_space_group_name_H-M          'P 1'
_symmetry_int_tables_number             1
loop_
  _symmetry_equiv_pos_as_xyz
         'x, y, z' 
loop_
  _atom_site_label
  _atom_site_occupancy
  _atom_site_fract_x
  _atom_site_fract_y
  _atom_site_fract_z
  _atom_site_thermal_displace_type
  _atom_site_B_iso_or_equiv
  _atom_site_type_symbol
  _atom_site_charge
         C1        1.0000    0.94990   0.33110   0.44794   Biso      1.000     C          -0.213013           
         C2        1.0000    0.81750   0.09368   0.27158   Biso      1.000     C          0.61055   
         C3        1.0000    0.97080   0.25430   0.38241   Biso      1.000     C          -0.08652  
         C4        1.0000    0.66940   0.19568   0.77999   Biso      1.000     C          0.62107   
         C5        1.0000    0.59780   0.27978   0.72433   Biso      1.000     C          0.016687  
         C6        1.0000    0.70160   0.30447   0.65588   Biso      1.000     C          -0.243554           
         C7        1.0000    0.63280   0.38064   0.60560   Biso      1.000     C          0.301543  
         C8        1.0000    0.46610   0.43428   0.62260   Biso      1.000     C          -0.322795           
         C9        1.0000    0.36490   0.40870   0.69037   Biso      1.000     C          0.29725799999999997           
         C10       1.0000    0.33060   0.80432   0.22001   Biso      1.000     C          0.621069  
         C11       1.0000    0.42630   0.33292   0.74225   Biso      1.000     C          -0.254215           
         C12       1.0000    0.40380   0.60027   0.80483   Biso      1.000     C          -0.24785100000000002          
         C13       1.0000    0.41040   0.69154   0.86234   Biso      1.000     C          -0.06467300000000001          
         C14       1.0000    0.22050   0.72815   0.87672   Biso      1.000     C          -0.067463           
         C15       1.0000    0.02340   0.67075   0.83253   Biso      1.000     C          -0.08358600000000001          
         C16       1.0000    0.01490   0.57970   0.77476   Biso      1.000     C          -0.222137           
         C17       1.0000    0.22510   0.82723   0.93664   Biso      1.000     C          0.613471  
         C18       1.0000    0.75590   0.32948   0.47562   Biso      1.000     C          0.28267800000000004           
         C19       1.0000    0.58170   0.25370   0.43795   Biso      1.000     C          -0.23104299999999997          
         C20       1.0000    0.20630   0.54458   0.76105   Biso      1.000     C          0.301005  
         C21       1.0000    0.59880   0.17850   0.37087   Biso      1.000     C          -0.069155           
         C22       1.0000    0.40220   0.72022   0.27567   Biso      1.000     C          0.016687999999999998          
         C23       1.0000    0.36720   0.61936   0.39440   Biso      1.000     C          0.301539  
         C24       1.0000    0.18250   0.90632   0.72842   Biso      1.000     C          0.6105510000000001  
         C25       1.0000    0.05010   0.66890   0.55206   Biso      1.000     C          -0.21301399999999998          
         C26       1.0000    0.02920   0.74570   0.61759   Biso      1.000     C          -0.08652  
         C27       1.0000    0.20440   0.82335   0.65701   Biso      1.000     C          -0.048095           
         C28       1.0000    0.40120   0.82150   0.62913   Biso      1.000     C          -0.06915700000000001          
         C29       1.0000    0.41830   0.74630   0.56205   Biso      1.000     C          -0.23105100000000003          
         C30       1.0000    0.24410   0.67052   0.52438   Biso      1.000     C          0.28268899999999997           
         C31       1.0000    0.29840   0.69553   0.34412   Biso      1.000     C          -0.243549           
         C32       1.0000    0.98510   0.42030   0.22524   Biso      1.000     C          -0.222136           
         C33       1.0000    0.77490   0.17277   0.06336   Biso      1.000     C          0.613471  
         C34       1.0000    0.77950   0.27185   0.12328   Biso      1.000     C          -0.067464           
         C35       1.0000    0.58960   0.30846   0.13766   Biso      1.000     C          -0.06467200000000001          
         C36       1.0000    0.59620   0.39973   0.19517   Biso      1.000     C          -0.247852           
         C37       1.0000    0.79370   0.45542   0.23895   Biso      1.000     C          0.301005  
         C38       1.0000    0.57370   0.66708   0.25775   Biso      1.000     C          -0.254222           
         C39       1.0000    0.63510   0.59130   0.30963   Biso      1.000     C          0.29725999999999997           
         C40       1.0000    0.53390   0.56572   0.37740   Biso      1.000     C          -0.32279  
         C41       1.0000    0.97660   0.32925   0.16747   Biso      1.000     C          -0.08358600000000001          
         C42       1.0000    0.79560   0.17665   0.34299   Biso      1.000     C          -0.048093000000000004         
         H1        1.0000    0.81390   0.83839   0.07968   Biso      1.000     H          0.39374899999999996           
         H2        1.0000    0.18610   0.16161   0.92032   Biso      1.000     H          0.39374899999999996           
         H3        1.0000    0.25010   0.09828   0.11424   Biso      1.000     H          0.39006599999999997           
         H4        1.0000    0.74990   0.90172   0.88576   Biso      1.000     H          0.390067  
         H5        1.0000    0.89610   0.74550   0.63550   Biso      1.000     H          0.112393  
         H6        1.0000    0.93250   0.61610   0.52670   Biso      1.000     H          0.128993  
         H7        1.0000    0.81630   0.26990   0.64420   Biso      1.000     H          0.145924  
         H8        1.0000    0.42290   0.48680   0.58880   Biso      1.000     H          0.155107  
         H9        1.0000    0.35610   0.31710   0.78820   Biso      1.000     H          0.148647  
         H10       1.0000    0.53230   0.57660   0.79580   Biso      1.000     H          0.130341  
         H11       1.0000    0.54430   0.72900   0.89190   Biso      1.000     H          0.113952  
         H12       1.0000    0.88120   0.54200   0.74510   Biso      1.000     H          0.127355  
         H13       1.0000    0.45070   0.25280   0.45770   Biso      1.000     H          0.130274  
         H14       1.0000    0.47780   0.12850   0.34390   Biso      1.000     H          0.12193599999999999           
         H15       1.0000    0.10390   0.25450   0.36450   Biso      1.000     H          0.112393  
         H16       1.0000    0.89460   0.69390   0.84190   Biso      1.000     H          0.116632  
         H17       1.0000    0.18370   0.73010   0.35580   Biso      1.000     H          0.145923  
         H18       1.0000    0.57710   0.51320   0.41120   Biso      1.000     H          0.155107  
         H19       1.0000    0.64390   0.68290   0.21180   Biso      1.000     H          0.148648  
         H20       1.0000    0.46770   0.42340   0.20420   Biso      1.000     H          0.130341  
         H21       1.0000    0.45570   0.27100   0.10810   Biso      1.000     H          0.113952  
         H22       1.0000    0.10540   0.30610   0.15810   Biso      1.000     H          0.116632  
         H23       1.0000    0.11880   0.45800   0.25490   Biso      1.000     H          0.127355  
         H24       1.0000    0.54930   0.74720   0.54230   Biso      1.000     H          0.130274  
         H25       1.0000    0.06750   0.38390   0.47330   Biso      1.000     H          0.128993  
         H26       1.0000    0.52220   0.87150   0.65610   Biso      1.000     H          0.12193599999999999           
         O1        1.0000    0.42030   0.81939   0.15633   Biso      1.000     O          -0.571624           
         O2        1.0000    0.18260   0.85181   0.24266   Biso      1.000     O          -0.549048           
         O3        1.0000    0.81810   0.54571   0.29734   Biso      1.000     O          -0.22285  
         O4        1.0000    0.95180   0.15059   0.04763   Biso      1.000     O          -0.570396           
         O5        1.0000    0.99280   0.92210   0.73462   Biso      1.000     O          -0.558958           
         O6        1.0000    0.26030   0.58908   0.46097   Biso      1.000     O          -0.243482           
         O7        1.0000    0.35280   0.95406   0.77722   Biso      1.000     O          -0.587344           
         O8        1.0000    0.81390   0.91791   0.08609   Biso      1.000     O          -0.8574450000000001           
         O9        1.0000    0.59100   0.11498   0.03212   Biso      1.000     O          -0.6130800000000001           
         O10       1.0000    0.25010   0.01876   0.10783   Biso      1.000     O          -0.8614139999999999           
         O11       1.0000    0.74990   0.98124   0.89217   Biso      1.000     O          -0.8614139999999999           
         O12       1.0000    0.64720   0.04594   0.22278   Biso      1.000     O          -0.5873430000000001           
         O13       1.0000    0.73970   0.41092   0.53903   Biso      1.000     O          -0.243482           
         O14       1.0000    0.40900   0.88502   0.96788   Biso      1.000     O          -0.6130800000000001           
         O15       1.0000    0.04820   0.84941   0.95237   Biso      1.000     O          -0.570396           
         O16       1.0000    0.18190   0.45429   0.70266   Biso      1.000     O          -0.22285  
         O17       1.0000    0.81740   0.14819   0.75734   Biso      1.000     O          -0.549048           
         O18       1.0000    0.57970   0.18061   0.84367   Biso      1.000     O          -0.571624           
         O19       1.0000    0.18610   0.08209   0.91391   Biso      1.000     O          -0.8574450000000001           
         O20       1.0000    0.00720   0.07790   0.26538   Biso      1.000     O          -0.558958           
         Zn1       1.0000    0.05857   0.96194   0.18627   Biso      1.000     Zn          0.960465  
         Zn2       1.0000    0.00000   0.00000   0.00000   Biso      1.000     Zn          0.9902620000000001  
         Zn3       1.0000    0.52004   0.95418   0.10055   Biso      1.000     Zn          1.0745120000000001  
         Zn4       1.0000    0.94143   0.03806   0.81373   Biso      1.000     Zn          0.960465  
         Zn5       1.0000    0.47996   0.04582   0.89945   Biso      1.000     Zn          1.0745129999999998 