
##########################################################################
#               Crystallographic Information Format file
#               Produced by PyCifRW module
#
#  This is a CIF file.  CIF has been adopted by the International
#  Union of Crystallography as the standard for data archiving and
#  transmission.
#
#  For information on this file format, follow the CIF links at
#  http://www.iucr.org
##########################################################################

data_image0

_cell_length_a                          6.3303
_cell_length_b                          12.6819
_cell_length_c                          15.6877
_cell_angle_alpha                       95.711
_cell_angle_beta                        99.773
_cell_angle_gamma                       97.973
_symmetry_space_group_name_H-M          'P 1'
_symmetry_int_tables_number             1
loop_
  _symmetry_equiv_pos_as_xyz
         'x, y, z' 
loop_
  _atom_site_label
  _atom_site_occupancy
  _atom_site_fract_x
  _atom_site_fract_y
  _atom_site_fract_z
  _atom_site_thermal_displace_type
  _atom_site_B_iso_or_equiv
  _atom_site_type_symbol
  _atom_site_charge
         C1        1.0000    0.75570   0.32920   0.47540   Biso      1.000     C          0.274336  
         C2        1.0000    0.04970   0.66870   0.55260   Biso      1.000     C          -0.209605           
         C3        1.0000    0.02990   0.74590   0.61810   Biso      1.000     C          -0.08386  
         C4        1.0000    0.20520   0.82300   0.65710   Biso      1.000     C          -0.045008           
         C5        1.0000    0.40100   0.82300   0.62960   Biso      1.000     C          -0.076356           
         C6        1.0000    0.42850   0.33230   0.74270   Biso      1.000     C          -0.249227           
         C7        1.0000    0.18520   0.90660   0.72890   Biso      1.000     C          0.604164  
         C8        1.0000    0.41070   0.69180   0.86260   Biso      1.000     C          -0.070724           
         C9        1.0000    0.22120   0.72730   0.87660   Biso      1.000     C          -0.064394           
         C10       1.0000    0.22510   0.82700   0.93640   Biso      1.000     C          0.6046560000000001  
         C11       1.0000    0.02400   0.66960   0.83260   Biso      1.000     C          -0.084107           
         C12       1.0000    0.01530   0.57850   0.77570   Biso      1.000     C          -0.218987           
         C13       1.0000    0.81480   0.09340   0.27110   Biso      1.000     C          0.604163  
         C14       1.0000    0.57970   0.25320   0.43760   Biso      1.000     C          -0.22700599999999999          
         C15       1.0000    0.59900   0.17700   0.37040   Biso      1.000     C          -0.07635700000000001          
         C16       1.0000    0.79480   0.17700   0.34290   Biso      1.000     C          -0.045006           
         C17       1.0000    0.97010   0.25410   0.38190   Biso      1.000     C          -0.083861           
         C18       1.0000    0.95030   0.33130   0.44740   Biso      1.000     C          -0.209598           
         C19       1.0000    0.67020   0.19680   0.77990   Biso      1.000     C          0.607726  
         C20       1.0000    0.59810   0.27990   0.72490   Biso      1.000     C          0.023072  
         C21       1.0000    0.69960   0.30350   0.65570   Biso      1.000     C          -0.241333           
         C22       1.0000    0.63300   0.38020   0.60520   Biso      1.000     C          0.295511  
         C23       1.0000    0.46490   0.43400   0.62190   Biso      1.000     C          -0.32619699999999996          
         C24       1.0000    0.36420   0.40790   0.69090   Biso      1.000     C          0.29342399999999996           
         C25       1.0000    0.24430   0.67080   0.52460   Biso      1.000     C          0.274341  
         C26       1.0000    0.77490   0.17300   0.06360   Biso      1.000     C          0.6046560000000001  
         C27       1.0000    0.42030   0.74680   0.56240   Biso      1.000     C          -0.227005           
         C28       1.0000    0.58930   0.30820   0.13740   Biso      1.000     C          -0.070724           
         C29       1.0000    0.40300   0.59980   0.80530   Biso      1.000     C          -0.24705  
         C30       1.0000    0.59700   0.40020   0.19470   Biso      1.000     C          -0.24705  
         C31       1.0000    0.32980   0.80320   0.22010   Biso      1.000     C          0.607726  
         C32       1.0000    0.40190   0.72010   0.27510   Biso      1.000     C          0.023072  
         C33       1.0000    0.30040   0.69650   0.34430   Biso      1.000     C          -0.241333           
         C34       1.0000    0.36700   0.61980   0.39480   Biso      1.000     C          0.295511  
         C35       1.0000    0.20610   0.54400   0.76170   Biso      1.000     C          0.295825  
         C36       1.0000    0.63580   0.59210   0.30910   Biso      1.000     C          0.293423  
         C37       1.0000    0.57150   0.66770   0.25730   Biso      1.000     C          -0.249225           
         C38       1.0000    0.79390   0.45600   0.23830   Biso      1.000     C          0.29582600000000003           
         C39       1.0000    0.98470   0.42150   0.22430   Biso      1.000     C          -0.218989           
         C40       1.0000    0.77880   0.27270   0.12340   Biso      1.000     C          -0.064394           
         C41       1.0000    0.53510   0.56600   0.37810   Biso      1.000     C          -0.32619699999999996          
         C42       1.0000    0.97600   0.33040   0.16740   Biso      1.000     C          -0.084106           
         H1        1.0000    0.06750   0.38430   0.47220   Biso      1.000     H          0.131393  
         H2        1.0000    0.10270   0.25400   0.36390   Biso      1.000     H          0.113401  
         H3        1.0000    0.47980   0.12600   0.34390   Biso      1.000     H          0.124731  
         H4        1.0000    0.44850   0.25270   0.45680   Biso      1.000     H          0.131922  
         H5        1.0000    0.11800   0.45970   0.25310   Biso      1.000     H          0.127936  
         H6        1.0000    0.10440   0.30720   0.15830   Biso      1.000     H          0.11901099999999999           
         H7        1.0000    0.64050   0.68350   0.21130   Biso      1.000     H          0.146051  
         H8        1.0000    0.57910   0.51410   0.41200   Biso      1.000     H          0.158088  
         H9        1.0000    0.18820   0.73210   0.35650   Biso      1.000     H          0.144369  
         H10       1.0000    0.28900   0.08650   0.12400   Biso      1.000     H          0.431909  
         H11       1.0000    0.53100   0.57600   0.79630   Biso      1.000     H          0.130627  
         H12       1.0000    0.88200   0.54030   0.74690   Biso      1.000     H          0.127936  
         H13       1.0000    0.89560   0.69280   0.84170   Biso      1.000     H          0.11901099999999999           
         H14       1.0000    0.35950   0.31650   0.78870   Biso      1.000     H          0.146051  
         H15       1.0000    0.42090   0.48590   0.58800   Biso      1.000     H          0.158088  
         H16       1.0000    0.81180   0.26790   0.64350   Biso      1.000     H          0.144369  
         H17       1.0000    0.18700   0.16135   0.91937   Biso      1.000     H          0.39562600000000003           
         H18       1.0000    0.81300   0.83865   0.08063   Biso      1.000     H          0.395625  
         H19       1.0000    0.46900   0.42400   0.20370   Biso      1.000     H          0.130627  
         H20       1.0000    0.93250   0.61570   0.52780   Biso      1.000     H          0.131393  
         H21       1.0000    0.89730   0.74600   0.63610   Biso      1.000     H          0.113401  
         H22       1.0000    0.52020   0.87400   0.65610   Biso      1.000     H          0.124731  
         H23       1.0000    0.55150   0.74730   0.54320   Biso      1.000     H          0.131922  
         H24       1.0000    0.71100   0.91350   0.87600   Biso      1.000     H          0.431909  
         H25       1.0000    0.54410   0.72970   0.89170   Biso      1.000     H          0.118154  
         H26       1.0000    0.45590   0.27030   0.10830   Biso      1.000     H          0.118154  
         O1        1.0000    0.99200   0.92230   0.73430   Biso      1.000     O          -0.5660689999999999           
         O2        1.0000    0.81300   0.91790   0.08700   Biso      1.000     O          -0.8566370000000001           
         O3        1.0000    0.81840   0.14850   0.75700   Biso      1.000     O          -0.547638           
         O4        1.0000    0.18090   0.45380   0.70260   Biso      1.000     O          -0.22474699999999997          
         O5        1.0000    0.04720   0.84880   0.95210   Biso      1.000     O          -0.562923           
         O6        1.0000    0.25030   0.01960   0.10780   Biso      1.000     O          -0.907701           
         O7        1.0000    0.57990   0.18160   0.84420   Biso      1.000     O          -0.57128  
         O8        1.0000    0.73860   0.41100   0.53890   Biso      1.000     O          -0.239698           
         O9        1.0000    0.40890   0.88480   0.96750   Biso      1.000     O          -0.613571           
         O10       1.0000    0.35400   0.95480   0.77690   Biso      1.000     O          -0.577944           
         O11       1.0000    0.26140   0.58900   0.46110   Biso      1.000     O          -0.239698           
         O12       1.0000    0.59110   0.11520   0.03250   Biso      1.000     O          -0.613571           
         O13       1.0000    0.95280   0.15120   0.04790   Biso      1.000     O          -0.562923           
         O14       1.0000    0.81910   0.54620   0.29740   Biso      1.000     O          -0.22474699999999997          
         O15       1.0000    0.18160   0.85150   0.24300   Biso      1.000     O          -0.547638           
         O16       1.0000    0.42010   0.81840   0.15580   Biso      1.000     O          -0.57128  
         O17       1.0000    0.18700   0.08210   0.91300   Biso      1.000     O          -0.8566379999999999           
         O18       1.0000    0.74970   0.98040   0.89220   Biso      1.000     O          -0.907701           
         O19       1.0000    0.00800   0.07770   0.26570   Biso      1.000     O          -0.5660689999999999           
         O20       1.0000    0.64600   0.04520   0.22310   Biso      1.000     O          -0.577944           
         Zn1       1.0000    0.51997   0.95383   0.10046   Biso      1.000     Zn          1.060423  
         Zn2       1.0000    0.48003   0.04617   0.89954   Biso      1.000     Zn          1.060424  
         Zn3       1.0000    0.05860   0.96181   0.18612   Biso      1.000     Zn          0.964657  
         Zn4       1.0000    0.94140   0.03819   0.81388   Biso      1.000     Zn          0.9646549999999999  
         Zn5       1.0000    0.00000   0.00000   0.00000   Biso      1.000     Zn          1.030092 