
##########################################################################
#               Crystallographic Information Format file
#               Produced by PyCifRW module
#
#  This is a CIF file.  CIF has been adopted by the International
#  Union of Crystallography as the standard for data archiving and
#  transmission.
#
#  For information on this file format, follow the CIF links at
#  http://www.iucr.org
##########################################################################

data_image0

_cell_length_a                          9.846
_cell_length_b                          10.9975
_cell_length_c                          12.8415
_cell_angle_alpha                       90
_cell_angle_beta                        90
_cell_angle_gamma                       99.39
_symmetry_space_group_name_H-M          'P 1'
_symmetry_int_tables_number             1
loop_
  _symmetry_equiv_pos_as_xyz
         'x, y, z' 
loop_
  _atom_site_label
  _atom_site_occupancy
  _atom_site_fract_x
  _atom_site_fract_y
  _atom_site_fract_z
  _atom_site_thermal_displace_type
  _atom_site_B_iso_or_equiv
  _atom_site_type_symbol
  _atom_site_charge
         C1        1.0000    0.35300   0.49060   0.68400   Biso      1.000     C          0.09274500000000001           
         C2        1.0000    0.22290   0.90260   0.85870   Biso      1.000     C          0.091709  
         C3        1.0000    0.37070   0.40330   0.87900   Biso      1.000     C          -0.174405           
         C4        1.0000    0.61220   0.82600   0.82080   Biso      1.000     C          0.093331  
         C5        1.0000    0.61420   0.98930   0.92880   Biso      1.000     C          0.10058500000000001           
         C6        1.0000    0.40280   0.89160   0.15420   Biso      1.000     C          0.6294569999999999  
         C7        1.0000    0.39450   0.97470   0.24730   Biso      1.000     C          0.0481    
         C8        1.0000    0.34480   0.56680   0.76760   Biso      1.000     C          -0.181018           
         C9        1.0000    0.62930   0.59670   0.37900   Biso      1.000     C          -0.174406           
         C10       1.0000    0.38580   0.01070   0.42880   Biso      1.000     C          0.100584  
         C11       1.0000    0.39190   0.09980   0.23470   Biso      1.000     C          -0.180232           
         C12       1.0000    0.60810   0.90020   0.73470   Biso      1.000     C          -0.180231           
         C13       1.0000    0.38780   0.17400   0.32080   Biso      1.000     C          0.093331  
         C14       1.0000    0.15390   0.39770   0.46100   Biso      1.000     C          0.627396  
         C15       1.0000    0.64700   0.50940   0.18400   Biso      1.000     C          0.09274400000000001           
         C16       1.0000    0.39220   0.93100   0.34740   Biso      1.000     C          -0.175576           
         C17       1.0000    0.90350   0.89770   0.15420   Biso      1.000     C          0.6446430000000001  
         C18       1.0000    0.60780   0.06900   0.84740   Biso      1.000     C          -0.175581           
         C19       1.0000    0.62770   0.67020   0.29220   Biso      1.000     C          0.089459  
         C20       1.0000    0.00660   0.10770   0.38240   Biso      1.000     C          0.091799  
         C21       1.0000    0.97210   0.47060   0.84640   Biso      1.000     C          -0.15405  
         C22       1.0000    0.84610   0.60230   0.96100   Biso      1.000     C          0.627395  
         C23       1.0000    0.14850   0.48880   0.37200   Biso      1.000     C          0.020697  
         C24       1.0000    0.37230   0.32980   0.79220   Biso      1.000     C          0.08946   
         C25       1.0000    0.22390   0.97980   0.77470   Biso      1.000     C          -0.176069           
         C26       1.0000    0.01640   0.03230   0.29920   Biso      1.000     C          -0.15498399999999998          
         C27       1.0000    0.10200   0.01610   0.74470   Biso      1.000     C          0.016277  
         C28       1.0000    0.60550   0.02530   0.74730   Biso      1.000     C          0.048104  
         C29       1.0000    0.09650   0.10230   0.65420   Biso      1.000     C          0.64465   
         C30       1.0000    0.59720   0.10840   0.65420   Biso      1.000     C          0.629456  
         C31       1.0000    0.02790   0.52940   0.34640   Biso      1.000     C          -0.154038           
         C32       1.0000    0.26220   0.52750   0.31200   Biso      1.000     C          -0.17036600000000002          
         C33       1.0000    0.77710   0.09740   0.35870   Biso      1.000     C          0.091709  
         C34       1.0000    0.73780   0.47250   0.81200   Biso      1.000     C          -0.170375           
         C35       1.0000    0.65520   0.43320   0.26760   Biso      1.000     C          -0.181018           
         C36       1.0000    0.99340   0.89230   0.88240   Biso      1.000     C          0.0918    
         C37       1.0000    0.89800   0.98390   0.24470   Biso      1.000     C          0.016283000000000002          
         C38       1.0000    0.02660   0.60620   0.26180   Biso      1.000     C          0.095316  
         C39       1.0000    0.35420   0.52300   0.86870   Biso      1.000     C          0.049801  
         C40       1.0000    0.25280   0.60530   0.22850   Biso      1.000     C          0.083142  
         C41       1.0000    0.77610   0.02020   0.27470   Biso      1.000     C          -0.176065           
         C42       1.0000    0.34760   0.60740   0.96050   Biso      1.000     C          0.639466  
         C43       1.0000    0.64580   0.47700   0.36870   Biso      1.000     C          0.049801  
         C44       1.0000    0.85150   0.51120   0.87200   Biso      1.000     C          0.020713  
         C45       1.0000    0.65240   0.39260   0.46050   Biso      1.000     C          0.639466  
         C46       1.0000    0.74720   0.39470   0.72850   Biso      1.000     C          0.083143  
         C47       1.0000    0.97340   0.39380   0.76180   Biso      1.000     C          0.095318  
         C48       1.0000    0.98360   0.96770   0.79920   Biso      1.000     C          -0.154978           
         H1        1.0000    0.38170   0.97890   0.49600   Biso      1.000     H          0.09261799999999999           
         H2        1.0000    0.60510   0.15180   0.86000   Biso      1.000     H          0.125557  
         H3        1.0000    0.10140   0.01350   0.27930   Biso      1.000     H          0.121298  
         H4        1.0000    0.64940   0.47680   0.11730   Biso      1.000     H          0.0968    
         H5        1.0000    0.62070   0.75270   0.30230   Biso      1.000     H          0.088027  
         H6        1.0000    0.39300   0.13340   0.16820   Biso      1.000     H          0.12845299999999998           
         H7        1.0000    0.33300   0.64800   0.75670   Biso      1.000     H          0.125711  
         H8        1.0000    0.05140   0.49460   0.88550   Biso      1.000     H          0.12887300000000002           
         H9        1.0000    0.38690   0.25750   0.31050   Biso      1.000     H          0.088075  
         H10       1.0000    0.61830   0.02110   0.99600   Biso      1.000     H          0.09261599999999999           
         H11       1.0000    0.08620   0.13760   0.41950   Biso      1.000     H          0.089759  
         H12       1.0000    0.65470   0.49830   0.82730   Biso      1.000     H          0.118657  
         H13       1.0000    0.37930   0.24730   0.80230   Biso      1.000     H          0.088027  
         H14       1.0000    0.60700   0.86660   0.66820   Biso      1.000     H          0.128452  
         H15       1.0000    0.38100   0.37090   0.94480   Biso      1.000     H          0.12888   
         H16       1.0000    0.91380   0.86240   0.91950   Biso      1.000     H          0.089759  
         H17       1.0000    0.66700   0.35200   0.25670   Biso      1.000     H          0.12571   
         H18       1.0000    0.39490   0.84820   0.36000   Biso      1.000     H          0.125555  
         H19       1.0000    0.05490   0.36480   0.74700   Biso      1.000     H          0.085615  
         H20       1.0000    0.94510   0.63520   0.24700   Biso      1.000     H          0.085615  
         H21       1.0000    0.66780   0.36640   0.69070   Biso      1.000     H          0.086247  
         H22       1.0000    0.34530   0.50170   0.32730   Biso      1.000     H          0.118656  
         H23       1.0000    0.33220   0.63360   0.19070   Biso      1.000     H          0.086247  
         H24       1.0000    0.94860   0.50540   0.38550   Biso      1.000     H          0.12887200000000001           
         H25       1.0000    0.69490   0.99290   0.23860   Biso      1.000     H          0.121921  
         H26       1.0000    0.30510   0.00710   0.73860   Biso      1.000     H          0.121921  
         H27       1.0000    0.61310   0.74250   0.81050   Biso      1.000     H          0.088075  
         H28       1.0000    0.61900   0.62910   0.44480   Biso      1.000     H          0.128881  
         H29       1.0000    0.35060   0.52320   0.61730   Biso      1.000     H          0.096799  
         H30       1.0000    0.30580   0.87940   0.87870   Biso      1.000     H          0.082165  
         H31       1.0000    0.69420   0.12060   0.37870   Biso      1.000     H          0.082165  
         H32       1.0000    0.89860   0.98650   0.77930   Biso      1.000     H          0.121298  
         Mg1       1.0000    0.12410   0.75210   0.05790   Biso      1.000     Mg          1.302675  
         Mg2       1.0000    0.87590   0.24790   0.55790   Biso      1.000     Mg          1.302675  
         Mg3       1.0000    0.62760   0.74904   0.05730   Biso      1.000     Mg          1.306333  
         Mg4       1.0000    0.37240   0.25096   0.55730   Biso      1.000     Mg          1.306333  
         N1        1.0000    0.61490   0.86790   0.91720   Biso      1.000     N          -0.303564           
         N2        1.0000    0.63570   0.63000   0.19430   Biso      1.000     N          -0.305329           
         N3        1.0000    0.38510   0.13210   0.41720   Biso      1.000     N          -0.303563           
         N4        1.0000    0.36430   0.37000   0.69430   Biso      1.000     N          -0.305329           
         N5        1.0000    0.88830   0.14070   0.41310   Biso      1.000     N          -0.295227           
         N6        1.0000    0.11170   0.85930   0.91310   Biso      1.000     N          -0.295227           
         N7        1.0000    0.13530   0.64190   0.19940   Biso      1.000     N          -0.30448800000000004          
         N8        1.0000    0.86470   0.35810   0.69940   Biso      1.000     N          -0.30448800000000004          
         O1        1.0000    0.73380   0.64210   0.97050   Biso      1.000     O          -0.668293           
         O2        1.0000    0.23520   0.64290   0.97460   Biso      1.000     O          -0.633342           
         O3        1.0000    0.48620   0.14610   0.64600   Biso      1.000     O          -0.635833           
         O4        1.0000    0.45320   0.63220   0.01290   Biso      1.000     O          -0.6427   
         O5        1.0000    0.30330   0.87240   0.09410   Biso      1.000     O          -0.633584           
         O6        1.0000    0.98460   0.13480   0.63790   Biso      1.000     O          -0.640766           
         O7        1.0000    0.54680   0.36780   0.51290   Biso      1.000     O          -0.6427   
         O8        1.0000    0.76480   0.35710   0.47460   Biso      1.000     O          -0.633342           
         O9        1.0000    0.04940   0.36950   0.51370   Biso      1.000     O          -0.62867  
         O10       1.0000    0.79610   0.86820   0.10140   Biso      1.000     O          -0.673108           
         O11       1.0000    0.20390   0.13180   0.60140   Biso      1.000     O          -0.6731090000000001           
         O12       1.0000    0.26620   0.35790   0.47050   Biso      1.000     O          -0.668293           
         O13       1.0000    0.95060   0.63050   0.01370   Biso      1.000     O          -0.628671           
         O14       1.0000    0.51380   0.85390   0.14600   Biso      1.000     O          -0.635833           
         O15       1.0000    0.01540   0.86520   0.13790   Biso      1.000     O          -0.6407649999999999           
         O16       1.0000    0.69670   0.12760   0.59410   Biso      1.000     O          -0.6335850000000001 