
##########################################################################
#               Crystallographic Information Format file
#               Produced by PyCifRW module
#
#  This is a CIF file.  CIF has been adopted by the International
#  Union of Crystallography as the standard for data archiving and
#  transmission.
#
#  For information on this file format, follow the CIF links at
#  http://www.iucr.org
##########################################################################

data_image0

_cell_length_a                          9.8836
_cell_length_b                          10.9817
_cell_length_c                          12.8681
_cell_angle_alpha                       90
_cell_angle_beta                        90
_cell_angle_gamma                       99.384
_symmetry_space_group_name_H-M          'P 1'
_symmetry_int_tables_number             1
loop_
  _symmetry_equiv_pos_as_xyz
         'x, y, z' 
loop_
  _atom_site_label
  _atom_site_occupancy
  _atom_site_fract_x
  _atom_site_fract_y
  _atom_site_fract_z
  _atom_site_thermal_displace_type
  _atom_site_B_iso_or_equiv
  _atom_site_type_symbol
  _atom_site_charge
         C1        1.0000    0.35220   0.49190   0.13460   Biso      1.000     C          0.07904   
         C2        1.0000    0.38460   0.01200   0.38980   Biso      1.000     C          0.102276  
         C3        1.0000    0.39040   0.93060   0.47330   Biso      1.000     C          -0.175894           
         C4        1.0000    0.39230   0.97590   0.57430   Biso      1.000     C          0.050848000000000004          
         C5        1.0000    0.40360   0.89350   0.66550   Biso      1.000     C          0.621011  
         C6        1.0000    0.60960   0.06940   0.97330   Biso      1.000     C          -0.175893           
         C7        1.0000    0.34360   0.56720   0.05370   Biso      1.000     C          -0.17546099999999998          
         C8        1.0000    0.37080   0.32940   0.02860   Biso      1.000     C          0.10832   
         C9        1.0000    0.39320   0.09990   0.58470   Biso      1.000     C          -0.1752   
         C10       1.0000    0.37040   0.40470   0.94140   Biso      1.000     C          -0.18548900000000001          
         C11       1.0000    0.34820   0.60700   0.85930   Biso      1.000     C          0.643196  
         C12       1.0000    0.74580   0.39350   0.09030   Biso      1.000     C          0.077201  
         C13       1.0000    0.73650   0.47240   0.00750   Biso      1.000     C          -0.168483           
         C14       1.0000    0.97220   0.39250   0.05740   Biso      1.000     C          0.091289  
         C15       1.0000    0.97140   0.47140   0.97260   Biso      1.000     C          -0.160412           
         C16       1.0000    0.84910   0.51210   0.94790   Biso      1.000     C          0.016149  
         C17       1.0000    0.84710   0.60290   0.85900   Biso      1.000     C          0.634921  
         C18       1.0000    0.35050   0.52210   0.95230   Biso      1.000     C          0.048705  
         C19       1.0000    0.77670   0.09880   0.46130   Biso      1.000     C          0.089906  
         C20       1.0000    0.38670   0.17430   0.49770   Biso      1.000     C          0.094557  
         C21       1.0000    0.10430   0.01590   0.07640   Biso      1.000     C          0.0207    
         C22       1.0000    0.64780   0.50810   0.63460   Biso      1.000     C          0.07904   
         C23       1.0000    0.65640   0.43280   0.55370   Biso      1.000     C          -0.17546099999999998          
         C24       1.0000    0.62920   0.67060   0.52860   Biso      1.000     C          0.10832   
         C25       1.0000    0.62960   0.59530   0.44140   Biso      1.000     C          -0.18548900000000001          
         C26       1.0000    0.64950   0.47790   0.45230   Biso      1.000     C          0.048705  
         C27       1.0000    0.65180   0.39300   0.35930   Biso      1.000     C          0.643196  
         C28       1.0000    0.25420   0.60650   0.59030   Biso      1.000     C          0.077201  
         C29       1.0000    0.09650   0.10100   0.16610   Biso      1.000     C          0.628428  
         C30       1.0000    0.26350   0.52760   0.50750   Biso      1.000     C          -0.168483           
         C31       1.0000    0.02860   0.52860   0.47260   Biso      1.000     C          -0.160415           
         C32       1.0000    0.15090   0.48790   0.44790   Biso      1.000     C          0.01615   
         C33       1.0000    0.15290   0.39710   0.35900   Biso      1.000     C          0.634921  
         C34       1.0000    0.22330   0.90120   0.96130   Biso      1.000     C          0.089906  
         C35       1.0000    0.22550   0.97740   0.04590   Biso      1.000     C          -0.168525           
         C36       1.0000    0.99310   0.89210   0.93620   Biso      1.000     C          0.093722  
         C37       1.0000    0.98470   0.96820   0.01960   Biso      1.000     C          -0.158349           
         C38       1.0000    0.02780   0.60750   0.55740   Biso      1.000     C          0.091292  
         C39       1.0000    0.77450   0.02260   0.54590   Biso      1.000     C          -0.16852899999999998          
         C40       1.0000    0.00690   0.10790   0.43620   Biso      1.000     C          0.093724  
         C41       1.0000    0.01530   0.03180   0.51960   Biso      1.000     C          -0.158354           
         C42       1.0000    0.61330   0.82570   0.99770   Biso      1.000     C          0.094557  
         C43       1.0000    0.60680   0.90010   0.08470   Biso      1.000     C          -0.175203           
         C44       1.0000    0.61540   0.98800   0.88980   Biso      1.000     C          0.102275  
         C45       1.0000    0.59640   0.10650   0.16550   Biso      1.000     C          0.621011  
         C46       1.0000    0.60770   0.02410   0.07430   Biso      1.000     C          0.050851  
         C47       1.0000    0.89570   0.98410   0.57640   Biso      1.000     C          0.020707  
         C48       1.0000    0.90350   0.89900   0.66610   Biso      1.000     C          0.628429  
         H1        1.0000    0.60710   0.15240   0.96110   Biso      1.000     H          0.126387  
         H2        1.0000    0.61550   0.74210   0.00730   Biso      1.000     H          0.08951100000000001           
         H3        1.0000    0.09950   0.01150   0.53880   Biso      1.000     H          0.123698  
         H4        1.0000    0.08650   0.13860   0.39990   Biso      1.000     H          0.093115  
         H5        1.0000    0.69340   0.99710   0.58210   Biso      1.000     H          0.121466  
         H6        1.0000    0.69480   0.12360   0.44180   Biso      1.000     H          0.083631  
         H7        1.0000    0.05040   0.49610   0.93370   Biso      1.000     H          0.129873  
         H8        1.0000    0.05340   0.36350   0.07220   Biso      1.000     H          0.087529  
         H9        1.0000    0.65360   0.49820   0.99260   Biso      1.000     H          0.11948800000000001           
         H10       1.0000    0.66670   0.36520   0.12810   Biso      1.000     H          0.086939  
         H11       1.0000    0.38390   0.37360   0.87570   Biso      1.000     H          0.128978  
         H12       1.0000    0.37660   0.24660   0.01810   Biso      1.000     H          0.083414  
         H13       1.0000    0.33310   0.64880   0.06480   Biso      1.000     H          0.12455699999999999           
         H14       1.0000    0.35050   0.52440   0.20130   Biso      1.000     H          0.097501  
         H15       1.0000    0.39290   0.84760   0.46110   Biso      1.000     H          0.126386  
         H16       1.0000    0.38150   0.98050   0.32260   Biso      1.000     H          0.09409   
         H17       1.0000    0.64950   0.47560   0.70130   Biso      1.000     H          0.0975    
         H18       1.0000    0.66690   0.35120   0.56480   Biso      1.000     H          0.12455699999999999           
         H19       1.0000    0.62340   0.75340   0.51810   Biso      1.000     H          0.083415  
         H20       1.0000    0.61610   0.62640   0.37570   Biso      1.000     H          0.128977  
         H21       1.0000    0.33330   0.63480   0.62810   Biso      1.000     H          0.086939  
         H22       1.0000    0.34640   0.50180   0.49260   Biso      1.000     H          0.11948800000000001           
         H23       1.0000    0.61850   0.01950   0.82260   Biso      1.000     H          0.09409   
         H24       1.0000    0.94660   0.63650   0.57220   Biso      1.000     H          0.087529  
         H25       1.0000    0.30520   0.87640   0.94180   Biso      1.000     H          0.083631  
         H26       1.0000    0.30660   0.00290   0.08210   Biso      1.000     H          0.121466  
         H27       1.0000    0.91350   0.86140   0.89990   Biso      1.000     H          0.09311599999999999           
         H28       1.0000    0.90050   0.98850   0.03880   Biso      1.000     H          0.123697  
         H29       1.0000    0.60180   0.86490   0.15060   Biso      1.000     H          0.12809600000000002           
         H30       1.0000    0.39820   0.13510   0.65060   Biso      1.000     H          0.12809600000000002           
         H31       1.0000    0.94960   0.50390   0.43370   Biso      1.000     H          0.129874  
         H32       1.0000    0.38450   0.25790   0.50730   Biso      1.000     H          0.08951100000000001           
         Mg1       1.0000    0.62790   0.74970   0.76510   Biso      1.000     Mg          1.306786  
         Mg2       1.0000    0.87500   0.24740   0.26430   Biso      1.000     Mg          1.303828  
         Mg3       1.0000    0.37210   0.25030   0.26510   Biso      1.000     Mg          1.306786  
         Mg4       1.0000    0.12500   0.75260   0.76430   Biso      1.000     Mg          1.303828  
         N1        1.0000    0.61650   0.86950   0.90240   Biso      1.000     N          -0.301619           
         N2        1.0000    0.63640   0.63220   0.62420   Biso      1.000     N          -0.30489099999999997          
         N3        1.0000    0.11190   0.86020   0.90510   Biso      1.000     N          -0.297272           
         N4        1.0000    0.13640   0.64450   0.61910   Biso      1.000     N          -0.299902           
         N5        1.0000    0.36360   0.36780   0.12420   Biso      1.000     N          -0.30489099999999997          
         N6        1.0000    0.86360   0.35550   0.11910   Biso      1.000     N          -0.299902           
         N7        1.0000    0.88810   0.13980   0.40510   Biso      1.000     N          -0.297272           
         N8        1.0000    0.38350   0.13050   0.40240   Biso      1.000     N          -0.30162  
         O1        1.0000    0.20400   0.13370   0.21950   Biso      1.000     O          -0.66828  
         O2        1.0000    0.76380   0.35900   0.34580   Biso      1.000     O          -0.633502           
         O3        1.0000    0.54710   0.37000   0.30730   Biso      1.000     O          -0.638914           
         O4        1.0000    0.05030   0.37130   0.30640   Biso      1.000     O          -0.6198199999999999           
         O5        1.0000    0.26460   0.35760   0.35090   Biso      1.000     O          -0.674824           
         O6        1.0000    0.98240   0.13530   0.18320   Biso      1.000     O          -0.644546           
         O7        1.0000    0.30260   0.87120   0.72750   Biso      1.000     O          -0.642972           
         O8        1.0000    0.73540   0.64240   0.85090   Biso      1.000     O          -0.674824           
         O9        1.0000    0.23620   0.64100   0.84580   Biso      1.000     O          -0.633502           
         O10       1.0000    0.45290   0.63000   0.80730   Biso      1.000     O          -0.638914           
         O11       1.0000    0.94970   0.62870   0.80640   Biso      1.000     O          -0.6198199999999999           
         O12       1.0000    0.48500   0.14600   0.17540   Biso      1.000     O          -0.6348010000000001           
         O13       1.0000    0.01760   0.86470   0.68320   Biso      1.000     O          -0.644546           
         O14       1.0000    0.79600   0.86630   0.71950   Biso      1.000     O          -0.66828  
         O15       1.0000    0.51500   0.85400   0.67540   Biso      1.000     O          -0.6348010000000001           
         O16       1.0000    0.69740   0.12880   0.22750   Biso      1.000     O          -0.642972 