
##########################################################################
#               Crystallographic Information Format file
#               Produced by PyCifRW module
#
#  This is a CIF file.  CIF has been adopted by the International
#  Union of Crystallography as the standard for data archiving and
#  transmission.
#
#  For information on this file format, follow the CIF links at
#  http://www.iucr.org
##########################################################################

data_image0

_cell_length_a                          6.4265
_cell_length_b                          16.6399
_cell_length_c                          16.6399
_cell_angle_alpha                       61.6315
_cell_angle_beta                        82.6034
_cell_angle_gamma                       97.3966
_symmetry_space_group_name_H-M          'P 1'
_symmetry_int_tables_number             1
loop_
  _symmetry_equiv_pos_as_xyz
         'x, y, z' 
loop_
  _atom_site_label
  _atom_site_occupancy
  _atom_site_fract_x
  _atom_site_fract_y
  _atom_site_fract_z
  _atom_site_thermal_displace_type
  _atom_site_B_iso_or_equiv
  _atom_site_type_symbol
  _atom_site_charge
         C1        1.0000    0.99038   0.54177   0.40203   Biso      1.000     C          -0.119147           
         C2        1.0000    0.51590   0.96343   0.59693   Biso      1.000     C          -0.040287           
         C3        1.0000    0.19520   0.89591   0.55905   Biso      1.000     C          -0.313938           
         C4        1.0000    0.60759   0.59797   0.94380   Biso      1.000     C          -0.120083           
         C5        1.0000    0.55247   0.43964   0.96343   Biso      1.000     C          -0.043385           
         C6        1.0000    0.29929   0.54504   0.89591   Biso      1.000     C          -0.313922           
         C7        1.0000    0.11283   0.59693   0.43964   Biso      1.000     C          -0.041777           
         C8        1.0000    0.88717   0.40307   0.56036   Biso      1.000     C          -0.041412           
         C9        1.0000    0.24575   0.44095   0.45496   Biso      1.000     C          -0.313566           
         C10       1.0000    0.44861   0.05620   0.54177   Biso      1.000     C          -0.12108900000000002          
         C11       1.0000    0.48410   0.03657   0.40307   Biso      1.000     C          -0.039777999999999994         
         C12       1.0000    0.80480   0.10409   0.44095   Biso      1.000     C          -0.313801           
         C13       1.0000    0.39241   0.40203   0.05620   Biso      1.000     C          -0.118531           
         C14       1.0000    0.44753   0.56036   0.03657   Biso      1.000     C          -0.042702           
         C15       1.0000    0.70071   0.45496   0.10409   Biso      1.000     C          -0.313705           
         C16       1.0000    0.00962   0.45823   0.59797   Biso      1.000     C          -0.12108900000000002          
         C17       1.0000    0.55139   0.94380   0.45823   Biso      1.000     C          -0.12228800000000001          
         C18       1.0000    0.75425   0.55905   0.54504   Biso      1.000     C          -0.313762           
         H1        1.0000    0.06602   0.57027   0.32522   Biso      1.000     H          0.103625  
         H2        1.0000    0.88245   0.32537   0.60590   Biso      1.000     H          0.12745599999999999           
         H3        1.0000    0.71656   0.41519   0.56048   Biso      1.000     H          0.113883  
         H4        1.0000    0.26733   0.04236   0.54772   Biso      1.000     H          0.105716  
         H5        1.0000    0.49575   0.10452   0.57027   Biso      1.000     H          0.10379000000000001           
         H6        1.0000    0.55707   0.06872   0.32537   Biso      1.000     H          0.12695499999999998           
         H7        1.0000    0.30137   0.02433   0.41519   Biso      1.000     H          0.11408299999999999           
         H8        1.0000    0.22497   0.40992   0.04236   Biso      1.000     H          0.105084  
         H9        1.0000    0.18577   0.45355   0.58933   Biso      1.000     H          0.105124  
         H10       1.0000    0.39123   0.32522   0.10452   Biso      1.000     H          0.10354300000000001           
         H11       1.0000    0.93455   0.42859   0.67506   Biso      1.000     H          0.10537200000000001           
         H12       1.0000    0.81505   0.54772   0.40992   Biso      1.000     H          0.105108  
         H13       1.0000    0.51125   0.39514   0.93023   Biso      1.000     H          0.127675  
         H14       1.0000    0.72217   0.43823   0.97646   Biso      1.000     H          0.115121  
         H15       1.0000    0.77510   0.58933   0.95711   Biso      1.000     H          0.10494   
         H16       1.0000    0.60961   0.67506   0.89635   Biso      1.000     H          0.10508699999999999           
         H17       1.0000    0.44148   0.93023   0.67463   Biso      1.000     H          0.126865  
         H18       1.0000    0.69863   0.97646   0.58531   Biso      1.000     H          0.11456500000000001           
         H19       1.0000    0.73222   0.95711   0.45355   Biso      1.000     H          0.10551400000000001           
         H20       1.0000    0.50596   0.89635   0.42859   Biso      1.000     H          0.10524700000000001           
         H21       1.0000    0.11611   0.67463   0.39514   Biso      1.000     H          0.12720499999999998           
         H22       1.0000    0.28395   0.58531   0.43823   Biso      1.000     H          0.114452  
         H23       1.0000    0.48835   0.60590   0.06872   Biso      1.000     H          0.127871  
         H24       1.0000    0.27703   0.56048   0.02433   Biso      1.000     H          0.11473   
         Mn1       1.0000    0.52649   0.24414   0.42157   Biso      1.000     Mn          1.074814  
         Mn2       1.0000    0.94806   0.42157   0.33429   Biso      1.000     Mn          1.075305  
         Mn3       1.0000    0.28235   0.33429   0.24414   Biso      1.000     Mn          1.075644  
         Mn4       1.0000    0.47351   0.75586   0.57843   Biso      1.000     Mn          1.075105  
         Mn5       1.0000    0.05194   0.57843   0.66571   Biso      1.000     Mn          1.075582  
         Mn6       1.0000    0.71765   0.66571   0.75586   Biso      1.000     Mn          1.075923  
         N1        1.0000    0.43106   0.90013   0.55997   Biso      1.000     N          -0.073875           
         N2        1.0000    0.46907   0.46010   0.09987   Biso      1.000     N          -0.073798           
         N3        1.0000    0.56894   0.09987   0.44003   Biso      1.000     N          -0.073789           
         N4        1.0000    0.00897   0.44003   0.46010   Biso      1.000     N          -0.073639           
         N5        1.0000    0.53093   0.53990   0.90013   Biso      1.000     N          -0.07359700000000001          
         N6        1.0000    0.99103   0.55997   0.53990   Biso      1.000     N          -0.07363600000000001          
         O1        1.0000    0.55333   0.55604   0.29495   Biso      1.000     O          -0.716172           
         O2        1.0000    0.84828   0.29495   0.14901   Biso      1.000     O          -0.7162850000000001           
         O3        1.0000    0.58724   0.29234   0.26892   Biso      1.000     O          -0.769217           
         O4        1.0000    0.29490   0.43874   0.29234   Biso      1.000     O          -0.769843           
         O5        1.0000    0.85616   0.26892   0.43874   Biso      1.000     O          -0.768898           
         O6        1.0000    0.58422   0.39165   0.36963   Biso      1.000     O          -0.742352           
         O7        1.0000    0.15172   0.70505   0.85099   Biso      1.000     O          -0.716472           
         O8        1.0000    0.41276   0.70766   0.73108   Biso      1.000     O          -0.769432           
         O9        1.0000    0.04615   0.63037   0.76128   Biso      1.000     O          -0.742405           
         O10       1.0000    0.00271   0.85099   0.44396   Biso      1.000     O          -0.71641  
         O11       1.0000    0.99729   0.14901   0.55604   Biso      1.000     O          -0.716212           
         O12       1.0000    0.95385   0.36963   0.23872   Biso      1.000     O          -0.742294           
         O13       1.0000    0.14384   0.73108   0.56126   Biso      1.000     O          -0.76913  
         O14       1.0000    0.80743   0.76128   0.60835   Biso      1.000     O          -0.742588           
         O15       1.0000    0.44667   0.44396   0.70505   Biso      1.000     O          -0.716353           
         O16       1.0000    0.70510   0.56126   0.70766   Biso      1.000     O          -0.770068           
         O17       1.0000    0.41578   0.60835   0.63037   Biso      1.000     O          -0.7424609999999999           
         O18       1.0000    0.19257   0.23872   0.39165   Biso      1.000     O          -0.742486           
         P1        1.0000    0.02497   0.80773   0.54383   Biso      1.000     P          1.2508780000000002  
         P2        1.0000    0.43120   0.45617   0.35156   Biso      1.000     P          1.251308  
         P3        1.0000    0.97503   0.19227   0.45617   Biso      1.000     P          1.250628  
         P4        1.0000    0.78276   0.35156   0.19227   Biso      1.000     P          1.249827  
         P5        1.0000    0.56880   0.54383   0.64844   Biso      1.000     P          1.251563  
         P6        1.0000    0.21724   0.64844   0.80773   Biso      1.000     P          1.250089 