
##########################################################################
#               Crystallographic Information Format file
#               Produced by PyCifRW module
#
#  This is a CIF file.  CIF has been adopted by the International
#  Union of Crystallography as the standard for data archiving and
#  transmission.
#
#  For information on this file format, follow the CIF links at
#  http://www.iucr.org
##########################################################################

data_image0

_cell_length_a                          6.2966
_cell_length_b                          16.3614
_cell_length_c                          16.3614
_cell_angle_alpha                       61.6201
_cell_angle_beta                        82.6297
_cell_angle_gamma                       97.3703
_symmetry_space_group_name_H-M          'P 1'
_symmetry_int_tables_number             1
loop_
  _symmetry_equiv_pos_as_xyz
         'x, y, z' 
loop_
  _atom_site_label
  _atom_site_occupancy
  _atom_site_fract_x
  _atom_site_fract_y
  _atom_site_fract_z
  _atom_site_thermal_displace_type
  _atom_site_B_iso_or_equiv
  _atom_site_type_symbol
  _atom_site_charge
         C1        1.0000    0.10844   0.59421   0.47259   Biso      1.000     C          -0.118774           
         C2        1.0000    0.93078   0.43681   0.59977   Biso      1.000     C          -0.13925  
         C3        1.0000    0.27474   0.54919   0.88527   Biso      1.000     C          -0.43563900000000005          
         C4        1.0000    0.49397   0.96342   0.43681   Biso      1.000     C          -0.139601           
         C5        1.0000    0.51423   0.93320   0.59421   Biso      1.000     C          -0.118926           
         C6        1.0000    0.72555   0.56554   0.54919   Biso      1.000     C          -0.43473999999999996          
         C7        1.0000    0.53055   0.59977   0.96342   Biso      1.000     C          -0.139022           
         C8        1.0000    0.58103   0.47259   0.93320   Biso      1.000     C          -0.118621           
         C9        1.0000    0.83999   0.11473   0.43446   Biso      1.000     C          -0.43509  
         C10       1.0000    0.16001   0.88527   0.56554   Biso      1.000     C          -0.43509  
         C11       1.0000    0.48577   0.06680   0.40579   Biso      1.000     C          -0.118927           
         C12       1.0000    0.27445   0.43446   0.45081   Biso      1.000     C          -0.43473999999999996          
         C13       1.0000    0.06922   0.56319   0.40023   Biso      1.000     C          -0.13925  
         C14       1.0000    0.89156   0.40579   0.52741   Biso      1.000     C          -0.118774           
         C15       1.0000    0.72526   0.45081   0.11473   Biso      1.000     C          -0.43563900000000005          
         C16       1.0000    0.41897   0.52741   0.06680   Biso      1.000     C          -0.118621           
         C17       1.0000    0.46945   0.40023   0.03658   Biso      1.000     C          -0.139022           
         C18       1.0000    0.50603   0.03658   0.56319   Biso      1.000     C          -0.139601           
         H1        1.0000    0.55450   0.10630   0.33870   Biso      1.000     H          0.128726  
         H2        1.0000    0.34420   0.46800   0.47910   Biso      1.000     H          0.145353  
         H3        1.0000    0.25130   0.36680   0.49490   Biso      1.000     H          0.155718  
         H4        1.0000    0.18690   0.59960   0.34400   Biso      1.000     H          0.12825899999999998           
         H5        1.0000    0.93320   0.57850   0.38140   Biso      1.000     H          0.11091600000000001           
         H6        1.0000    0.74620   0.49490   0.13830   Biso      1.000     H          0.156855  
         H7        1.0000    0.89320   0.33870   0.55500   Biso      1.000     H          0.12848199999999999           
         H8        1.0000    0.82330   0.47910   0.05290   Biso      1.000     H          0.144873  
         H9        1.0000    0.31460   0.38140   0.04010   Biso      1.000     H          0.110144  
         H10       1.0000    0.26170   0.51460   0.07190   Biso      1.000     H          0.105598  
         H11       1.0000    0.44820   0.55500   0.10630   Biso      1.000     H          0.128495  
         H12       1.0000    0.33360   0.07190   0.41350   Biso      1.000     H          0.105672  
         H13       1.0000    0.74710   0.41350   0.51460   Biso      1.000     H          0.10638800000000001           
         H14       1.0000    0.35470   0.04010   0.57850   Biso      1.000     H          0.11046099999999999           
         H15       1.0000    0.53090   0.34400   0.05640   Biso      1.000     H          0.128707  
         H16       1.0000    0.88450   0.13830   0.36680   Biso      1.000     H          0.156135  
         H17       1.0000    0.12380   0.94710   0.53200   Biso      1.000     H          0.145232  
         H18       1.0000    0.11550   0.86170   0.63320   Biso      1.000     H          0.156135  
         H19       1.0000    0.41270   0.94360   0.40040   Biso      1.000     H          0.128892  
         H20       1.0000    0.64530   0.95990   0.42150   Biso      1.000     H          0.11046099999999999           
         H21       1.0000    0.66640   0.92810   0.58650   Biso      1.000     H          0.105672  
         H22       1.0000    0.44550   0.89370   0.66130   Biso      1.000     H          0.128726  
         H23       1.0000    0.65580   0.53200   0.52090   Biso      1.000     H          0.145353  
         H24       1.0000    0.74870   0.63320   0.50510   Biso      1.000     H          0.155718  
         H25       1.0000    0.58730   0.05640   0.59960   Biso      1.000     H          0.128892  
         H26       1.0000    0.81310   0.40040   0.65600   Biso      1.000     H          0.12825899999999998           
         H27       1.0000    0.25290   0.58650   0.48540   Biso      1.000     H          0.10638800000000001           
         H28       1.0000    0.10680   0.66130   0.44500   Biso      1.000     H          0.12848199999999999           
         H29       1.0000    0.17670   0.52090   0.94710   Biso      1.000     H          0.144873  
         H30       1.0000    0.25380   0.50510   0.86170   Biso      1.000     H          0.156855  
         H31       1.0000    0.68540   0.61860   0.95990   Biso      1.000     H          0.110144  
         H32       1.0000    0.73830   0.48540   0.92810   Biso      1.000     H          0.105598  
         H33       1.0000    0.55180   0.44500   0.89370   Biso      1.000     H          0.128495  
         H34       1.0000    0.87620   0.05290   0.46800   Biso      1.000     H          0.145232  
         H35       1.0000    0.06680   0.42150   0.61860   Biso      1.000     H          0.11091600000000001           
         H36       1.0000    0.46910   0.65600   0.94360   Biso      1.000     H          0.128707  
         Mg1       1.0000    0.45523   0.74686   0.58052   Biso      1.000     Mg          1.408599  
         Mg2       1.0000    0.03575   0.58052   0.67262   Biso      1.000     Mg          1.4082940000000002  
         Mg3       1.0000    0.29163   0.32738   0.25314   Biso      1.000     Mg          1.408306  
         Mg4       1.0000    0.96425   0.41948   0.32738   Biso      1.000     Mg          1.4082940000000002  
         Mg5       1.0000    0.54477   0.25314   0.41948   Biso      1.000     Mg          1.4086    
         Mg6       1.0000    0.70837   0.67262   0.74686   Biso      1.000     Mg          1.408306  
         N1        1.0000    0.49275   0.43567   0.10412   Biso      1.000     N          -0.161603           
         N2        1.0000    0.05708   0.46021   0.43567   Biso      1.000     N          -0.162948           
         N3        1.0000    0.59687   0.10412   0.46021   Biso      1.000     N          -0.16189800000000001          
         N4        1.0000    0.40313   0.89588   0.53979   Biso      1.000     N          -0.16189800000000001          
         N5        1.0000    0.94292   0.53979   0.56433   Biso      1.000     N          -0.162948           
         N6        1.0000    0.50725   0.56433   0.89588   Biso      1.000     N          -0.161603           
         O1        1.0000    0.40978   0.71010   0.72296   Biso      1.000     O          -0.942366           
         O2        1.0000    0.99460   0.14741   0.56881   Biso      1.000     O          -0.793736           
         O3        1.0000    0.22325   0.23185   0.40140   Biso      1.000     O          -0.9309879999999999           
         O4        1.0000    0.00540   0.85259   0.43119   Biso      1.000     O          -0.793736           
         O5        1.0000    0.86726   0.27704   0.43306   Biso      1.000     O          -0.942787           
         O6        1.0000    0.56341   0.56881   0.28378   Biso      1.000     O          -0.793779           
         O7        1.0000    0.62465   0.40140   0.36675   Biso      1.000     O          -0.931001           
         O8        1.0000    0.30032   0.43306   0.28990   Biso      1.000     O          -0.9429219999999999           
         O9        1.0000    0.84719   0.28378   0.14741   Biso      1.000     O          -0.794147           
         O10       1.0000    0.00860   0.63325   0.76815   Biso      1.000     O          -0.931056           
         O11       1.0000    0.15281   0.71622   0.85259   Biso      1.000     O          -0.794147           
         O12       1.0000    0.59022   0.28990   0.27704   Biso      1.000     O          -0.942366           
         O13       1.0000    0.37535   0.59860   0.63325   Biso      1.000     O          -0.931001           
         O14       1.0000    0.43659   0.43119   0.71622   Biso      1.000     O          -0.793779           
         O15       1.0000    0.13274   0.72296   0.56694   Biso      1.000     O          -0.942787           
         O16       1.0000    0.77675   0.76815   0.59860   Biso      1.000     O          -0.9309879999999999           
         O17       1.0000    0.99140   0.36675   0.23185   Biso      1.000     O          -0.931056           
         O18       1.0000    0.69968   0.56694   0.71010   Biso      1.000     O          -0.9429219999999999           
         P1        1.0000    0.00873   0.80387   0.53559   Biso      1.000     P          1.339444  
         P2        1.0000    0.54432   0.53559   0.66054   Biso      1.000     P          1.339826  
         P3        1.0000    0.20486   0.66054   0.80387   Biso      1.000     P          1.3395190000000001  
         P4        1.0000    0.99127   0.19613   0.46441   Biso      1.000     P          1.339444  
         P5        1.0000    0.45568   0.46441   0.33946   Biso      1.000     P          1.339826  
         P6        1.0000    0.79514   0.33946   0.19613   Biso      1.000     P          1.3395190000000001 