
##########################################################################
#               Crystallographic Information Format file
#               Produced by PyCifRW module
#
#  This is a CIF file.  CIF has been adopted by the International
#  Union of Crystallography as the standard for data archiving and
#  transmission.
#
#  For information on this file format, follow the CIF links at
#  http://www.iucr.org
##########################################################################

data_image0

_cell_length_a                          28.0942
_cell_length_b                          28.0942
_cell_length_c                          6.2846
_cell_angle_alpha                       90
_cell_angle_beta                        90
_cell_angle_gamma                       120
_symmetry_space_group_name_H-M          'P 1'
_symmetry_int_tables_number             1
loop_
  _symmetry_equiv_pos_as_xyz
         'x, y, z' 
loop_
  _atom_site_label
  _atom_site_occupancy
  _atom_site_fract_x
  _atom_site_fract_y
  _atom_site_fract_z
  _atom_site_thermal_displace_type
  _atom_site_B_iso_or_equiv
  _atom_site_type_symbol
  _atom_site_charge
         C1        1.0000    0.83153   0.21517   0.74667   Biso      1.000     C          0.035531  
         C2        1.0000    0.22727   0.34863   0.61603   Biso      1.000     C          -0.064289           
         C3        1.0000    0.54850   0.05030   0.92000   Biso      1.000     C          0.032669  
         C4        1.0000    0.50250   0.94920   0.99900   Biso      1.000     C          -0.08669  
         C5        1.0000    0.56060   0.01530   0.28270   Biso      1.000     C          -0.065979           
         C6        1.0000    0.78003   0.16417   0.66567   Biso      1.000     C          -0.086719           
         C7        1.0000    0.88663   0.16917   0.66767   Biso      1.000     C          -0.086799           
         C8        1.0000    0.87863   0.22727   0.38397   Biso      1.000     C          -0.08075  
         C9        1.0000    0.16487   0.88183   0.41333   Biso      1.000     C          0.029963  
         C10       1.0000    0.21997   0.83583   0.33433   Biso      1.000     C          -0.093904           
         C11       1.0000    0.21197   0.89393   0.05063   Biso      1.000     C          -0.068474           
         C12       1.0000    0.49820   0.54850   0.08000   Biso      1.000     C          0.032467  
         C13       1.0000    0.55330   0.50250   0.00100   Biso      1.000     C          -0.08655  
         C14       1.0000    0.54530   0.56060   0.71730   Biso      1.000     C          -0.064159           
         C15       1.0000    0.38363   0.16847   0.74667   Biso      1.000     C          0.033279  
         C16       1.0000    0.28253   0.11337   0.66767   Biso      1.000     C          -0.087483           
         C17       1.0000    0.34863   0.12137   0.38397   Biso      1.000     C          -0.08293  
         C18       1.0000    0.71697   0.83513   0.41333   Biso      1.000     C          0.039481  
         C19       1.0000    0.16917   0.28253   0.33233   Biso      1.000     C          -0.085557           
         C20       1.0000    0.61587   0.78003   0.33433   Biso      1.000     C          -0.087051           
         C21       1.0000    0.21517   0.38363   0.25333   Biso      1.000     C          0.0335    
         C22       1.0000    0.83583   0.61587   0.66567   Biso      1.000     C          -0.080238           
         C23       1.0000    0.78803   0.10607   0.94937   Biso      1.000     C          -0.067719           
         C24       1.0000    0.16847   0.78483   0.25333   Biso      1.000     C          0.02946   
         C25       1.0000    0.11337   0.83083   0.33233   Biso      1.000     C          -0.091932           
         C26       1.0000    0.12137   0.77273   0.61603   Biso      1.000     C          -0.069064           
         C27       1.0000    0.50180   0.45150   0.92000   Biso      1.000     C          0.032877  
         C28       1.0000    0.44670   0.49750   0.99900   Biso      1.000     C          -0.088955           
         C29       1.0000    0.45470   0.43940   0.28270   Biso      1.000     C          -0.08306  
         C30       1.0000    0.28303   0.16487   0.58667   Biso      1.000     C          0.03273   
         C31       1.0000    0.38413   0.21997   0.66567   Biso      1.000     C          -0.086497           
         C32       1.0000    0.31803   0.21197   0.94937   Biso      1.000     C          -0.064977           
         C33       1.0000    0.61637   0.83153   0.25333   Biso      1.000     C          0.031662  
         C34       1.0000    0.71747   0.88663   0.33233   Biso      1.000     C          -0.088819           
         C35       1.0000    0.65137   0.87863   0.61603   Biso      1.000     C          -0.065621           
         C36       1.0000    0.94970   0.49820   0.92000   Biso      1.000     C          0.031552  
         C37       1.0000    0.05080   0.55330   0.99900   Biso      1.000     C          -0.091118           
         C38       1.0000    0.98470   0.54530   0.28270   Biso      1.000     C          -0.058418           
         C39       1.0000    0.88183   0.71697   0.58667   Biso      1.000     C          0.03552   
         C40       1.0000    0.89393   0.68197   0.94937   Biso      1.000     C          -0.079606           
         C41       1.0000    0.68197   0.78803   0.05063   Biso      1.000     C          -0.078388           
         C42       1.0000    0.83513   0.11817   0.58667   Biso      1.000     C          0.031912  
         C43       1.0000    0.45150   0.94970   0.08000   Biso      1.000     C          0.035661  
         C44       1.0000    0.01530   0.45470   0.71730   Biso      1.000     C          -0.05938  
         C45       1.0000    0.94920   0.44670   0.00100   Biso      1.000     C          -0.092036           
         C46       1.0000    0.78483   0.61637   0.74667   Biso      1.000     C          0.028306  
         C47       1.0000    0.83083   0.71747   0.66767   Biso      1.000     C          -0.088437           
         C48       1.0000    0.49750   0.05080   0.00100   Biso      1.000     C          -0.087302           
         C49       1.0000    0.77273   0.65137   0.38397   Biso      1.000     C          -0.08639  
         C50       1.0000    0.05030   0.50180   0.08000   Biso      1.000     C          0.03169   
         C51       1.0000    0.10607   0.31803   0.05063   Biso      1.000     C          -0.082941           
         C52       1.0000    0.11817   0.28303   0.41333   Biso      1.000     C          0.033134  
         C53       1.0000    0.16417   0.38413   0.33433   Biso      1.000     C          -0.088456           
         C54       1.0000    0.43940   0.98470   0.71730   Biso      1.000     C          -0.080222           
         Co1       1.0000    0.36581   0.39235   0.94987   Biso      1.000     Co          1.038571  
         Co2       1.0000    0.35987   0.30085   0.61653   Biso      1.000     Co          1.046333  
         Co3       1.0000    0.69915   0.05901   0.61653   Biso      1.000     Co          1.046822  
         Co4       1.0000    0.64013   0.69915   0.38347   Biso      1.000     Co          1.042562  
         Co5       1.0000    0.69320   0.96752   0.28320   Biso      1.000     Co          1.056133  
         Co6       1.0000    0.96752   0.27432   0.71680   Biso      1.000     Co          1.039229  
         Co7       1.0000    0.97347   0.36581   0.05013   Biso      1.000     Co          1.023895  
         Co8       1.0000    0.27432   0.30680   0.28320   Biso      1.000     Co          1.047316  
         Co9       1.0000    0.03248   0.72568   0.28320   Biso      1.000     Co          1.047398  
         Co10      1.0000    0.05901   0.35987   0.38347   Biso      1.000     Co          1.036573  
         Co11      1.0000    0.02653   0.63419   0.94987   Biso      1.000     Co          1.027161  
         Co12      1.0000    0.30680   0.03248   0.71680   Biso      1.000     Co          1.038445  
         Co13      1.0000    0.63419   0.60765   0.05013   Biso      1.000     Co          1.047796  
         Co14      1.0000    0.30085   0.94099   0.38347   Biso      1.000     Co          1.043602  
         Co15      1.0000    0.39235   0.02653   0.05013   Biso      1.000     Co          1.040156  
         Co16      1.0000    0.60765   0.97347   0.94987   Biso      1.000     Co          1.048134  
         Co17      1.0000    0.94099   0.64013   0.61653   Biso      1.000     Co          1.047269  
         Co18      1.0000    0.72568   0.69320   0.71680   Biso      1.000     Co          1.043906  
         N1        1.0000    0.78672   0.11446   0.71097   Biso      1.000     N          -0.078149           
         N2        1.0000    0.88554   0.67227   0.71097   Biso      1.000     N          -0.080043           
         N3        1.0000    0.11446   0.32773   0.28903   Biso      1.000     N          -0.06914  
         N4        1.0000    0.67227   0.78672   0.28903   Biso      1.000     N          -0.069661           
         N5        1.0000    0.66107   0.87994   0.37763   Biso      1.000     N          -0.078932           
         N6        1.0000    0.21888   0.33893   0.37763   Biso      1.000     N          -0.078227           
         N7        1.0000    0.33893   0.12006   0.62237   Biso      1.000     N          -0.069916           
         N8        1.0000    0.78112   0.66107   0.62237   Biso      1.000     N          -0.067493           
         N9        1.0000    0.55221   0.00560   0.04430   Biso      1.000     N          -0.078315           
         N10       1.0000    0.32773   0.21328   0.71097   Biso      1.000     N          -0.078064           
         N11       1.0000    0.44779   0.99440   0.95570   Biso      1.000     N          -0.070323           
         N12       1.0000    0.12006   0.78112   0.37763   Biso      1.000     N          -0.075466           
         N13       1.0000    0.21328   0.88554   0.28903   Biso      1.000     N          -0.074312           
         N14       1.0000    0.87994   0.21888   0.62237   Biso      1.000     N          -0.070163           
         N15       1.0000    0.99440   0.54661   0.04430   Biso      1.000     N          -0.071725           
         N16       1.0000    0.45339   0.44779   0.04430   Biso      1.000     N          -0.070012           
         N17       1.0000    0.00560   0.45339   0.95570   Biso      1.000     N          -0.071106           
         N18       1.0000    0.54661   0.55221   0.95570   Biso      1.000     N          -0.077916           
         O1        1.0000    0.33623   0.28457   0.28247   Biso      1.000     O          -0.749323           
         O2        1.0000    0.05887   0.80803   0.81133   Biso      1.000     O          -0.586577           
         O3        1.0000    0.71543   0.05167   0.28247   Biso      1.000     O          -0.751649           
         O4        1.0000    0.67843   0.05627   0.94817   Biso      1.000     O          -0.738312           
         O5        1.0000    0.72553   0.14137   0.14467   Biso      1.000     O          -0.582801           
         O6        1.0000    0.38210   0.38500   0.61580   Biso      1.000     O          -0.749897           
         O7        1.0000    0.34510   0.38960   0.28150   Biso      1.000     O          -0.738295           
         O8        1.0000    0.74917   0.94113   0.81133   Biso      1.000     O          -0.581889           
         O9        1.0000    0.47470   0.08250   0.52200   Biso      1.000     O          -0.586809           
         O10       1.0000    0.66957   0.95123   0.94913   Biso      1.000     O          -0.751498           
         O11       1.0000    0.38500   0.00290   0.38420   Biso      1.000     O          -0.748963           
         O12       1.0000    0.39220   0.47470   0.47800   Biso      1.000     O          -0.587729           
         O13       1.0000    0.05167   0.33623   0.71753   Biso      1.000     O          -0.75076  
         O14       1.0000    0.05627   0.37783   0.05183   Biso      1.000     O          -0.73508  
         O15       1.0000    0.14137   0.41583   0.85533   Biso      1.000     O          -0.58854  
         O16       1.0000    0.38960   0.04450   0.71850   Biso      1.000     O          -0.734609           
         O17       1.0000    0.01177   0.72293   0.61483   Biso      1.000     O          -0.735566           
         O18       1.0000    0.04877   0.71833   0.94913   Biso      1.000     O          -0.749688           
         O19       1.0000    0.41583   0.27447   0.14467   Biso      1.000     O          -0.58341  
         O20       1.0000    0.37783   0.32157   0.94817   Biso      1.000     O          -0.734754           
         O21       1.0000    0.71117   0.98823   0.61483   Biso      1.000     O          -0.737411           
         O22       1.0000    0.00290   0.61790   0.61580   Biso      1.000     O          -0.750508           
         O23       1.0000    0.66377   0.71543   0.71753   Biso      1.000     O          -0.755665           
         O24       1.0000    0.08250   0.60780   0.47800   Biso      1.000     O          -0.577659           
         O25       1.0000    0.04450   0.65490   0.28150   Biso      1.000     O          -0.735118           
         O26       1.0000    0.91750   0.39220   0.52200   Biso      1.000     O          -0.578454           
         O27       1.0000    0.95550   0.34510   0.71850   Biso      1.000     O          -0.733082           
         O28       1.0000    0.99710   0.38210   0.38420   Biso      1.000     O          -0.750198           
         O29       1.0000    0.28457   0.94833   0.71753   Biso      1.000     O          -0.751869           
         O30       1.0000    0.32157   0.94373   0.05183   Biso      1.000     O          -0.732891           
         O31       1.0000    0.27447   0.85863   0.85533   Biso      1.000     O          -0.588822           
         O32       1.0000    0.61790   0.61500   0.38420   Biso      1.000     O          -0.751269           
         O33       1.0000    0.65490   0.61040   0.71850   Biso      1.000     O          -0.7338   
         O34       1.0000    0.60780   0.52530   0.52200   Biso      1.000     O          -0.580302           
         O35       1.0000    0.33043   0.04877   0.05087   Biso      1.000     O          -0.751275           
         O36       1.0000    0.28883   0.01177   0.38517   Biso      1.000     O          -0.736973           
         O37       1.0000    0.25083   0.05887   0.18867   Biso      1.000     O          -0.586959           
         O38       1.0000    0.58417   0.72553   0.85533   Biso      1.000     O          -0.586798           
         O39       1.0000    0.62217   0.67843   0.05183   Biso      1.000     O          -0.737441           
         O40       1.0000    0.98823   0.27707   0.38517   Biso      1.000     O          -0.733634           
         O41       1.0000    0.95123   0.28167   0.05087   Biso      1.000     O          -0.747925           
         O42       1.0000    0.94113   0.19197   0.18867   Biso      1.000     O          -0.587061           
         O43       1.0000    0.85863   0.58417   0.14467   Biso      1.000     O          -0.587063           
         O44       1.0000    0.80803   0.74917   0.18867   Biso      1.000     O          -0.588135           
         O45       1.0000    0.72293   0.71117   0.38517   Biso      1.000     O          -0.74692  
         O46       1.0000    0.94373   0.62217   0.94817   Biso      1.000     O          -0.738354           
         O47       1.0000    0.71833   0.66957   0.05087   Biso      1.000     O          -0.747954           
         O48       1.0000    0.28167   0.33043   0.94913   Biso      1.000     O          -0.751463           
         O49       1.0000    0.27707   0.28883   0.61483   Biso      1.000     O          -0.738039           
         O50       1.0000    0.94833   0.66377   0.28247   Biso      1.000     O          -0.749264           
         O51       1.0000    0.19197   0.25083   0.81133   Biso      1.000     O          -0.584116           
         O52       1.0000    0.61500   0.99710   0.61580   Biso      1.000     O          -0.750849           
         O53       1.0000    0.61040   0.95550   0.28150   Biso      1.000     O          -0.739245           
         O54       1.0000    0.52530   0.91750   0.47800   Biso      1.000     O          -0.582757           
         P1        1.0000    0.69767   0.94193   0.76283   Biso      1.000     P          1.232161  
         P2        1.0000    0.75573   0.69767   0.23717   Biso      1.000     P          1.231125  
         P3        1.0000    0.03100   0.60860   0.42950   Biso      1.000     P          1.226585  
         P4        1.0000    0.72473   0.08907   0.09617   Biso      1.000     P          1.231492  
         P5        1.0000    0.42240   0.03100   0.57050   Biso      1.000     P          1.230901  
         P6        1.0000    0.30233   0.05807   0.23717   Biso      1.000     P          1.232045  
         P7        1.0000    0.63567   0.72473   0.90383   Biso      1.000     P          1.231347  
         P8        1.0000    0.08907   0.36433   0.90383   Biso      1.000     P          1.231755  
         P9        1.0000    0.91093   0.63567   0.09617   Biso      1.000     P          1.232668  
         P10       1.0000    0.57760   0.96900   0.42950   Biso      1.000     P          1.231501  
         P11       1.0000    0.05807   0.75573   0.76283   Biso      1.000     P          1.232502  
         P12       1.0000    0.24427   0.30233   0.76283   Biso      1.000     P          1.230957  
         P13       1.0000    0.36433   0.27527   0.09617   Biso      1.000     P          1.230176  
         P14       1.0000    0.94193   0.24427   0.23717   Biso      1.000     P          1.230799  
         P15       1.0000    0.39140   0.42240   0.42950   Biso      1.000     P          1.231766  
         P16       1.0000    0.96900   0.39140   0.57050   Biso      1.000     P          1.227475  
         P17       1.0000    0.60860   0.57760   0.57050   Biso      1.000     P          1.230067  
         P18       1.0000    0.27527   0.91093   0.90383   Biso      1.000     P          1.233282 