
##########################################################################
#               Crystallographic Information Format file
#               Produced by PyCifRW module
#
#  This is a CIF file.  CIF has been adopted by the International
#  Union of Crystallography as the standard for data archiving and
#  transmission.
#
#  For information on this file format, follow the CIF links at
#  http://www.iucr.org
##########################################################################

data_image0

_cell_length_a                          8.619
_cell_length_b                          17.818
_cell_length_c                          18.385
_cell_angle_alpha                       95.672
_cell_angle_beta                        102.223
_cell_angle_gamma                       101.053
_symmetry_space_group_name_H-M          'P 1'
_symmetry_int_tables_number             1
loop_
  _symmetry_equiv_pos_as_xyz
         'x, y, z' 
loop_
  _atom_site_label
  _atom_site_occupancy
  _atom_site_fract_x
  _atom_site_fract_y
  _atom_site_fract_z
  _atom_site_thermal_displace_type
  _atom_site_B_iso_or_equiv
  _atom_site_type_symbol
  _atom_site_charge
         C1        1.0000    0.76490   0.59970   0.11370   Biso      1.000     C          0.621552  
         C2        1.0000    0.22700   0.91100   0.04510   Biso      1.000     C          0.637563  
         C3        1.0000    0.21290   0.87010   0.96700   Biso      1.000     C          -0.30052399999999996          
         C4        1.0000    0.23140   0.95390   0.87130   Biso      1.000     C          -0.14052  
         C5        1.0000    0.39810   0.85720   0.88350   Biso      1.000     C          -0.105325           
         C6        1.0000    0.51430   0.81830   0.93260   Biso      1.000     C          -0.21314  
         C7        1.0000    0.67360   0.86910   0.98200   Biso      1.000     C          -0.116478           
         C8        1.0000    0.58500   0.87490   0.10060   Biso      1.000     C          -0.292572           
         C9        1.0000    0.68130   0.82080   0.14210   Biso      1.000     C          0.635261  
         C10       1.0000    0.17440   0.01510   0.38040   Biso      1.000     C          -0.143786           
         C11       1.0000    0.91200   0.84280   0.52330   Biso      1.000     C          0.594276  
         C12       1.0000    0.74870   0.85860   0.48440   Biso      1.000     C          -0.290572           
         C13       1.0000    0.70130   0.97680   0.54460   Biso      1.000     C          -0.14565  
         C14       1.0000    0.65730   0.95410   0.40850   Biso      1.000     C          -0.108226           
         C15       1.0000    0.71240   0.92990   0.33780   Biso      1.000     C          -0.216646           
         C16       1.0000    0.87730   0.97660   0.32950   Biso      1.000     C          -0.12186099999999998          
         C17       1.0000    0.03350   0.88060   0.36690   Biso      1.000     C          -0.266081           
         C18       1.0000    0.04900   0.84940   0.28760   Biso      1.000     C          0.6002390000000001  
         C19       1.0000    0.28100   0.68210   0.10860   Biso      1.000     C          0.627877  
         C20       1.0000    0.40280   0.63540   0.09140   Biso      1.000     C          -0.272516           
         C21       1.0000    0.68570   0.40590   0.08190   Biso      1.000     C          -0.134904           
         C22       1.0000    0.21650   0.56690   0.97420   Biso      1.000     C          -0.138685           
         C23       1.0000    0.24230   0.50330   0.08910   Biso      1.000     C          -0.11037000000000001          
         C24       1.0000    0.35170   0.48170   0.15480   Biso      1.000     C          -0.203346           
         C25       1.0000    0.80640   0.97500   0.08620   Biso      1.000     C          -0.137032           
         C26       1.0000    0.23510   0.40030   0.88630   Biso      1.000     C          0.621552  
         C27       1.0000    0.28840   0.46790   0.84650   Biso      1.000     C          -0.282486           
         C28       1.0000    0.53420   0.56990   0.86080   Biso      1.000     C          -0.11318399999999999          
         C29       1.0000    0.19360   0.02500   0.91380   Biso      1.000     C          -0.137033           
         C30       1.0000    0.77300   0.08900   0.95490   Biso      1.000     C          0.637563  
         C31       1.0000    0.78710   0.12990   0.03300   Biso      1.000     C          -0.30052399999999996          
         C32       1.0000    0.76860   0.04610   0.12870   Biso      1.000     C          -0.14052  
         C33       1.0000    0.60190   0.14280   0.11650   Biso      1.000     C          -0.105325           
         C34       1.0000    0.48570   0.18170   0.06740   Biso      1.000     C          -0.21314  
         C35       1.0000    0.32640   0.13090   0.01800   Biso      1.000     C          -0.116478           
         C36       1.0000    0.41500   0.12510   0.89940   Biso      1.000     C          -0.292572           
         C37       1.0000    0.31870   0.17920   0.85790   Biso      1.000     C          0.635261  
         C38       1.0000    0.82560   0.98490   0.61960   Biso      1.000     C          -0.143787           
         C39       1.0000    0.08800   0.15720   0.47670   Biso      1.000     C          0.594278  
         C40       1.0000    0.46580   0.43010   0.13920   Biso      1.000     C          -0.11318399999999999          
         C41       1.0000    0.25130   0.14140   0.51560   Biso      1.000     C          -0.290572           
         C42       1.0000    0.34270   0.04590   0.59150   Biso      1.000     C          -0.108227           
         C43       1.0000    0.28760   0.07010   0.66220   Biso      1.000     C          -0.216646           
         C44       1.0000    0.12270   0.02340   0.67050   Biso      1.000     C          -0.12186199999999998          
         C45       1.0000    0.96650   0.11940   0.63310   Biso      1.000     C          -0.26608000000000004          
         C46       1.0000    0.95100   0.15060   0.71240   Biso      1.000     C          0.6002390000000001  
         C47       1.0000    0.71900   0.31790   0.89140   Biso      1.000     C          0.627877  
         C48       1.0000    0.59720   0.36460   0.90860   Biso      1.000     C          -0.272516           
         C49       1.0000    0.31430   0.59410   0.91810   Biso      1.000     C          -0.134904           
         C50       1.0000    0.78350   0.43310   0.02580   Biso      1.000     C          -0.138685           
         C51       1.0000    0.75770   0.49670   0.91090   Biso      1.000     C          -0.11037000000000001          
         C52       1.0000    0.64830   0.51830   0.84520   Biso      1.000     C          -0.203346           
         C53       1.0000    0.29870   0.02320   0.45540   Biso      1.000     C          -0.145651           
         C54       1.0000    0.71160   0.53210   0.15350   Biso      1.000     C          -0.282487           
         Eu1       1.0000    0.05711   0.77358   0.14318   Biso      1.000     Eu          1.376036  
         Eu2       1.0000    0.94289   0.22642   0.85682   Biso      1.000     Eu          1.3760350000000001  
         H1        1.0000    0.85760   0.48220   0.04730   Biso      1.000     H          0.11180999999999999           
         H2        1.0000    0.81530   0.54350   0.94500   Biso      1.000     H          0.099963  
         H3        1.0000    0.59870   0.94500   0.54770   Biso      1.000     H          0.104503  
         H4        1.0000    0.66750   0.83970   0.51140   Biso      1.000     H          0.140118  
         H5        1.0000    0.71470   0.83040   0.43370   Biso      1.000     H          0.153675  
         H6        1.0000    0.21780   0.99560   0.33960   Biso      1.000     H          0.125448  
         H7        1.0000    0.15250   0.06530   0.37160   Biso      1.000     H          0.120628  
         H8        1.0000    0.56540   0.91130   0.13870   Biso      1.000     H          0.129742  
         H9        1.0000    0.47970   0.84360   0.07370   Biso      1.000     H          0.135405  
         H10       1.0000    0.72700   0.90110   0.95080   Biso      1.000     H          0.106124  
         H11       1.0000    0.74480   0.83590   0.00120   Biso      1.000     H          0.11172   
         H12       1.0000    0.45580   0.79130   0.96540   Biso      1.000     H          0.109911  
         H13       1.0000    0.54240   0.77940   0.90000   Biso      1.000     H          0.124021  
         H14       1.0000    0.31180   0.81740   0.85080   Biso      1.000     H          0.097495  
         H15       1.0000    0.45640   0.88590   0.85180   Biso      1.000     H          0.11235   
         H16       1.0000    0.29600   0.97070   0.83620   Biso      1.000     H          0.11535   
         H17       1.0000    0.13060   0.91990   0.84270   Biso      1.000     H          0.11083   
         H18       1.0000    0.10170   0.86300   0.93820   Biso      1.000     H          0.134826  
         H19       1.0000    0.65600   0.00860   0.41140   Biso      1.000     H          0.10459600000000001           
         H20       1.0000    0.54630   0.92600   0.40300   Biso      1.000     H          0.09963999999999999           
         H21       1.0000    0.62900   0.93350   0.29440   Biso      1.000     H          0.133151  
         H22       1.0000    0.71860   0.87600   0.33620   Biso      1.000     H          0.11895599999999999           
         H23       1.0000    0.66100   0.54980   0.19240   Biso      1.000     H          0.149242  
         H24       1.0000    0.80730   0.51520   0.17800   Biso      1.000     H          0.13813499999999998           
         H25       1.0000    0.40170   0.38330   0.10680   Biso      1.000     H          0.105875  
         H26       1.0000    0.51610   0.41510   0.18640   Biso      1.000     H          0.09523999999999999           
         H27       1.0000    0.41750   0.52920   0.18540   Biso      1.000     H          0.114527  
         H28       1.0000    0.28370   0.45630   0.18490   Biso      1.000     H          0.131143  
         H29       1.0000    0.16190   0.52640   0.10710   Biso      1.000     H          0.10510499999999999           
         H30       1.0000    0.18470   0.45650   0.05500   Biso      1.000     H          0.099964  
         H31       1.0000    0.23560   0.81920   0.97120   Biso      1.000     H          0.14948499999999998           
         H32       1.0000    0.14240   0.51780   0.95270   Biso      1.000     H          0.11180999999999999           
         H33       1.0000    0.75850   0.39650   0.12640   Biso      1.000     H          0.104604  
         H34       1.0000    0.60880   0.35770   0.05970   Biso      1.000     H          0.11267200000000001           
         H35       1.0000    0.47050   0.62850   0.13860   Biso      1.000     H          0.139664  
         H36       1.0000    0.47310   0.66470   0.06450   Biso      1.000     H          0.1315    
         H37       1.0000    0.12750   0.87360   0.40310   Biso      1.000     H          0.139496  
         H38       1.0000    0.93850   0.84810   0.37670   Biso      1.000     H          0.13877799999999998           
         H39       1.0000    0.87850   0.03140   0.33830   Biso      1.000     H          0.104252  
         H40       1.0000    0.88710   0.96440   0.27830   Biso      1.000     H          0.109857  
         H41       1.0000    0.15240   0.60410   0.98460   Biso      1.000     H          0.111444  
         H42       1.0000    0.87140   0.94960   0.12150   Biso      1.000     H          0.133699  
         H43       1.0000    0.68290   0.02740   0.53540   Biso      1.000     H          0.108714  
         H44       1.0000    0.33900   0.45020   0.80760   Biso      1.000     H          0.149242  
         H45       1.0000    0.78220   0.00440   0.66040   Biso      1.000     H          0.125448  
         H46       1.0000    0.28530   0.16960   0.56630   Biso      1.000     H          0.153675  
         H47       1.0000    0.33250   0.16030   0.48860   Biso      1.000     H          0.140118  
         H48       1.0000    0.40130   0.05500   0.45230   Biso      1.000     H          0.104503  
         H49       1.0000    0.31710   0.97260   0.46460   Biso      1.000     H          0.108714  
         H50       1.0000    0.34400   0.99140   0.58860   Biso      1.000     H          0.10459600000000001           
         H51       1.0000    0.45370   0.07400   0.59700   Biso      1.000     H          0.09963999999999999           
         H52       1.0000    0.37100   0.06650   0.70560   Biso      1.000     H          0.133152  
         H53       1.0000    0.84750   0.93470   0.62840   Biso      1.000     H          0.120628  
         H54       1.0000    0.28140   0.12400   0.66380   Biso      1.000     H          0.11895599999999999           
         H55       1.0000    0.12150   0.96860   0.66170   Biso      1.000     H          0.104252  
         H56       1.0000    0.06150   0.15190   0.62330   Biso      1.000     H          0.13877799999999998           
         H57       1.0000    0.87250   0.12640   0.59690   Biso      1.000     H          0.139495  
         H58       1.0000    0.52690   0.33530   0.93550   Biso      1.000     H          0.1315    
         H59       1.0000    0.52950   0.37150   0.86140   Biso      1.000     H          0.139664  
         H60       1.0000    0.39120   0.64230   0.94030   Biso      1.000     H          0.11267200000000001           
         H61       1.0000    0.86820   0.99140   0.05000   Biso      1.000     H          0.116352  
         H62       1.0000    0.84760   0.39590   0.01540   Biso      1.000     H          0.111444  
         H63       1.0000    0.11290   0.03560   0.72170   Biso      1.000     H          0.109857  
         H64       1.0000    0.43460   0.08870   0.86130   Biso      1.000     H          0.129742  
         H65       1.0000    0.24150   0.60350   0.87360   Biso      1.000     H          0.104604  
         H66       1.0000    0.27300   0.09890   0.04920   Biso      1.000     H          0.106124  
         H67       1.0000    0.59830   0.61670   0.89320   Biso      1.000     H          0.105875  
         H68       1.0000    0.48390   0.58490   0.81360   Biso      1.000     H          0.09523999999999999           
         H69       1.0000    0.58250   0.47080   0.81460   Biso      1.000     H          0.114527  
         H70       1.0000    0.71630   0.54370   0.81510   Biso      1.000     H          0.131143  
         H71       1.0000    0.83810   0.47360   0.89290   Biso      1.000     H          0.10510499999999999           
         H72       1.0000    0.52030   0.15640   0.92630   Biso      1.000     H          0.135405  
         H73       1.0000    0.13180   0.00860   0.95000   Biso      1.000     H          0.116352  
         H74       1.0000    0.12860   0.05040   0.87850   Biso      1.000     H          0.133699  
         H75       1.0000    0.76440   0.18080   0.02880   Biso      1.000     H          0.14948499999999998           
         H76       1.0000    0.89830   0.13700   0.06180   Biso      1.000     H          0.134826  
         H77       1.0000    0.86940   0.08010   0.15730   Biso      1.000     H          0.11083   
         H78       1.0000    0.70400   0.02930   0.16380   Biso      1.000     H          0.11535   
         H79       1.0000    0.54360   0.11410   0.14820   Biso      1.000     H          0.11235   
         H80       1.0000    0.68820   0.18260   0.14920   Biso      1.000     H          0.097495  
         H81       1.0000    0.45760   0.22060   0.10000   Biso      1.000     H          0.12402   
         H82       1.0000    0.54420   0.20870   0.03460   Biso      1.000     H          0.109911  
         H83       1.0000    0.25520   0.16410   0.99880   Biso      1.000     H          0.11172   
         H84       1.0000    0.19270   0.48480   0.82200   Biso      1.000     H          0.13813499999999998           
         N1        1.0000    0.67250   0.44195   0.95380   Biso      1.000     N          -0.051817999999999996         
         N2        1.0000    0.67760   0.08906   0.07466   Biso      1.000     N          -0.060476           
         N3        1.0000    0.24330   0.05850   0.51930   Biso      1.000     N          -0.054528999999999994         
         N4        1.0000    0.34810   0.07974   0.95320   Biso      1.000     N          -0.030163           
         N5        1.0000    0.32240   0.91094   0.92534   Biso      1.000     N          -0.060476           
         N6        1.0000    0.97960   0.03910   0.61770   Biso      1.000     N          -0.032197           
         N7        1.0000    0.65190   0.92026   0.04680   Biso      1.000     N          -0.030163           
         N8        1.0000    0.40380   0.53497   0.89630   Biso      1.000     N          -0.061876           
         N9        1.0000    0.02040   0.96090   0.38230   Biso      1.000     N          -0.032198000000000004         
         N10       1.0000    0.32750   0.55805   0.04620   Biso      1.000     N          -0.051817999999999996         
         N11       1.0000    0.59620   0.46503   0.10370   Biso      1.000     N          -0.061876           
         N12       1.0000    0.75670   0.94150   0.48070   Biso      1.000     N          -0.054529999999999995         
         O1        1.0000    0.38010   0.20739   0.80824   Biso      1.000     O          -0.490245           
         O2        1.0000    0.19570   0.19243   0.87752   Biso      1.000     O          -0.606851           
         O3        1.0000    0.95910   0.10587   0.46657   Biso      1.000     O          -0.552772           
         O4        1.0000    0.09110   0.22300   0.45900   Biso      1.000     O          -0.544944           
         O5        1.0000    0.92890   0.10704   0.76083   Biso      1.000     O          -0.606899           
         O6        1.0000    0.96020   0.22205   0.72507   Biso      1.000     O          -0.570114           
         O7        1.0000    0.79820   0.33494   0.84410   Biso      1.000     O          -0.586497           
         O8        1.0000    0.73920   0.26214   0.92698   Biso      1.000     O          -0.658956           
         O9        1.0000    0.30650   0.40248   0.95504   Biso      1.000     O          -0.580604           
         O10       1.0000    0.12580   0.34663   0.84860   Biso      1.000     O          -0.557967           
         O11       1.0000    0.33430   0.97209   0.07049   Biso      1.000     O          -0.546715           
         O12       1.0000    0.12870   0.88075   0.08152   Biso      1.000     O          -0.614368           
         O13       1.0000    0.80430   0.80757   0.12248   Biso      1.000     O          -0.606851           
         O14       1.0000    0.04090   0.89413   0.53343   Biso      1.000     O          -0.55277  
         O15       1.0000    0.90890   0.77700   0.54100   Biso      1.000     O          -0.5449390000000001           
         O16       1.0000    0.07110   0.89296   0.23917   Biso      1.000     O          -0.606899           
         O17       1.0000    0.03980   0.77795   0.27493   Biso      1.000     O          -0.5701149999999999           
         O18       1.0000    0.20180   0.66506   0.15590   Biso      1.000     O          -0.586497           
         O19       1.0000    0.26080   0.73786   0.07302   Biso      1.000     O          -0.658956           
         O20       1.0000    0.69350   0.59752   0.04496   Biso      1.000     O          -0.580604           
         O21       1.0000    0.87420   0.65337   0.15140   Biso      1.000     O          -0.557967           
         O22       1.0000    0.87130   0.11925   0.91848   Biso      1.000     O          -0.6143689999999999           
         O23       1.0000    0.61990   0.79261   0.19176   Biso      1.000     O          -0.490245           
         O24       1.0000    0.66570   0.02791   0.92951   Biso      1.000     O          -0.546715           
         Zn1       1.0000    0.50000   0.00000   0.00000   Biso      1.000     Zn          0.616947  
         Zn2       1.0000    0.00000   0.00000   0.50000   Biso      1.000     Zn          0.620889  
         Zn3       1.0000    0.50000   0.50000   0.00000   Biso      1.000     Zn          0.620252 