
##########################################################################
#               Crystallographic Information Format file
#               Produced by PyCifRW module
#
#  This is a CIF file.  CIF has been adopted by the International
#  Union of Crystallography as the standard for data archiving and
#  transmission.
#
#  For information on this file format, follow the CIF links at
#  http://www.iucr.org
##########################################################################

data_image0

_cell_length_a                          9.9411
_cell_length_b                          9.9411
_cell_length_c                          11.21
_cell_angle_alpha                       63.6786
_cell_angle_beta                        63.6786
_cell_angle_gamma                       89.9999
_symmetry_space_group_name_H-M          'P 1'
_symmetry_int_tables_number             1
loop_
  _symmetry_equiv_pos_as_xyz
         'x, y, z' 
loop_
  _atom_site_label
  _atom_site_occupancy
  _atom_site_fract_x
  _atom_site_fract_y
  _atom_site_fract_z
  _atom_site_thermal_displace_type
  _atom_site_B_iso_or_equiv
  _atom_site_type_symbol
  _atom_site_charge
         C1        1.0000    0.67120   0.11680   0.44180   Biso      1.000     C          0.34563699999999997           
         C2        1.0000    0.11680   0.38700   0.94180   Biso      1.000     C          0.345625  
         C3        1.0000    0.44140   0.67120   0.94180   Biso      1.000     C          0.34467600000000004           
         C4        1.0000    0.38700   0.44140   0.44180   Biso      1.000     C          0.34417   
         C5        1.0000    0.61300   0.55860   0.55820   Biso      1.000     C          0.34415999999999997           
         C6        1.0000    0.32880   0.88320   0.55820   Biso      1.000     C          0.34562800000000005           
         C7        1.0000    0.55860   0.32880   0.05820   Biso      1.000     C          0.344675  
         C8        1.0000    0.88320   0.61300   0.05820   Biso      1.000     C          0.345634  
         Cd1       1.0000    0.86416   0.61416   0.77168   Biso      1.000     Cd          0.7621640000000001  
         Cd2       1.0000    0.13584   0.38584   0.22832   Biso      1.000     Cd          0.7621600000000001  
         Cd3       1.0000    0.61416   0.86416   0.27168   Biso      1.000     Cd          0.762484  
         Cd4       1.0000    0.38584   0.13584   0.72832   Biso      1.000     Cd          0.762486  
         N1        1.0000    0.82039   0.16240   0.33966   Biso      1.000     N          -0.260221           
         N2        1.0000    0.25209   0.37434   0.36940   Biso      1.000     N          -0.04852  
         N3        1.0000    0.33995   0.49794   0.33966   Biso      1.000     N          -0.25957600000000003          
         N4        1.0000    0.33225   0.28884   0.53230   Biso      1.000     N          -0.251448           
         N5        1.0000    0.48249   0.53730   0.44868   Biso      1.000     N          -0.11464  
         N6        1.0000    0.76852   0.26736   0.48516   Biso      1.000     N          -0.050727999999999995         
         N7        1.0000    0.87851   0.25626   0.36940   Biso      1.000     N          -0.048149000000000004         
         N8        1.0000    0.63545   0.17886   0.53230   Biso      1.000     N          -0.25256300000000004          
         N9        1.0000    0.53730   0.56883   0.94868   Biso      1.000     N          -0.114771           
         N10       1.0000    0.24748   0.76852   0.98516   Biso      1.000     N          -0.051039           
         N11       1.0000    0.37434   0.87851   0.86940   Biso      1.000     N          -0.048451999999999995         
         N12       1.0000    0.49794   0.82039   0.83966   Biso      1.000     N          -0.259748           
         N13       1.0000    0.28884   0.63545   0.03230   Biso      1.000     N          -0.25172  
         N14       1.0000    0.24632   0.24748   0.48516   Biso      1.000     N          -0.051098000000000005         
         N15       1.0000    0.26736   0.24632   0.98516   Biso      1.000     N          -0.050472           
         N16       1.0000    0.25626   0.25209   0.86940   Biso      1.000     N          -0.049462           
         N17       1.0000    0.16240   0.33995   0.83966   Biso      1.000     N          -0.260278           
         N18       1.0000    0.56883   0.01402   0.44868   Biso      1.000     N          -0.115122           
         N19       1.0000    0.98598   0.51751   0.05132   Biso      1.000     N          -0.11476800000000001          
         N20       1.0000    0.71116   0.36455   0.96770   Biso      1.000     N          -0.251756           
         N21       1.0000    0.83760   0.66005   0.16034   Biso      1.000     N          -0.260313           
         N22       1.0000    0.75368   0.75252   0.51484   Biso      1.000     N          -0.051162           
         N23       1.0000    0.74791   0.62566   0.63060   Biso      1.000     N          -0.048478           
         N24       1.0000    0.66005   0.50206   0.66034   Biso      1.000     N          -0.25958200000000003          
         N25       1.0000    0.66775   0.71116   0.46770   Biso      1.000     N          -0.251408           
         N26       1.0000    0.51751   0.46270   0.55132   Biso      1.000     N          -0.11457200000000001          
         N27       1.0000    0.23148   0.73264   0.51484   Biso      1.000     N          -0.050722           
         N28       1.0000    0.12149   0.74374   0.63060   Biso      1.000     N          -0.048195           
         N29       1.0000    0.17961   0.83760   0.66034   Biso      1.000     N          -0.260183           
         N30       1.0000    0.36455   0.82114   0.46770   Biso      1.000     N          -0.25256100000000004          
         N31       1.0000    0.43117   0.98598   0.55132   Biso      1.000     N          -0.11506500000000001          
         N32       1.0000    0.75252   0.23148   0.01484   Biso      1.000     N          -0.051008           
         N33       1.0000    0.62566   0.12149   0.13060   Biso      1.000     N          -0.048452999999999996         
         N34       1.0000    0.50206   0.17961   0.16034   Biso      1.000     N          -0.25975  
         N35       1.0000    0.17886   0.33225   0.03230   Biso      1.000     N          -0.252102           
         N36       1.0000    0.46270   0.43117   0.05132   Biso      1.000     N          -0.11471400000000001          
         N37       1.0000    0.73264   0.75368   0.01484   Biso      1.000     N          -0.050477           
         N38       1.0000    0.74374   0.74791   0.13060   Biso      1.000     N          -0.049422           
         N39       1.0000    0.82114   0.66775   0.96770   Biso      1.000     N          -0.252102           
         N40       1.0000    0.01402   0.48249   0.94868   Biso      1.000     N          -0.114701 