
##########################################################################
#               Crystallographic Information Format file
#               Produced by PyCifRW module
#
#  This is a CIF file.  CIF has been adopted by the International
#  Union of Crystallography as the standard for data archiving and
#  transmission.
#
#  For information on this file format, follow the CIF links at
#  http://www.iucr.org
##########################################################################

data_image0

_cell_length_a                          5.6415
_cell_length_b                          14.847
_cell_length_c                          27.633
_cell_angle_alpha                       90
_cell_angle_beta                        90
_cell_angle_gamma                       100.149
_symmetry_space_group_name_H-M          'P 1'
_symmetry_int_tables_number             1
loop_
  _symmetry_equiv_pos_as_xyz
         'x, y, z' 
loop_
  _atom_site_label
  _atom_site_occupancy
  _atom_site_fract_x
  _atom_site_fract_y
  _atom_site_fract_z
  _atom_site_thermal_displace_type
  _atom_site_B_iso_or_equiv
  _atom_site_type_symbol
  _atom_site_charge
         C1        1.0000    0.24660   0.74030   0.66231   Biso      1.000     C          -0.078239           
         C2        1.0000    0.60370   0.24330   0.75370   Biso      1.000     C          0.460521  
         C3        1.0000    0.60150   0.27420   0.80498   Biso      1.000     C          -0.084482           
         C4        1.0000    0.45920   0.33940   0.81932   Biso      1.000     C          0.025672  
         C5        1.0000    0.30650   0.37250   0.78537   Biso      1.000     C          -0.084207           
         C6        1.0000    0.29310   0.33990   0.73448   Biso      1.000     C          0.460932  
         C7        1.0000    0.22470   0.15710   0.60871   Biso      1.000     C          0.11103   
         C8        1.0000    0.22370   0.19170   0.65553   Biso      1.000     C          -0.206525           
         C9        1.0000    0.43490   0.24480   0.67270   Biso      1.000     C          0.252476  
         C10       1.0000    0.63460   0.26430   0.64334   Biso      1.000     C          -0.202333           
         C11       1.0000    0.62210   0.22690   0.59740   Biso      1.000     C          0.118028  
         C12       1.0000    0.21570   0.88790   0.55232   Biso      1.000     C          0.606422  
         C13       1.0000    0.17390   0.43830   0.79847   Biso      1.000     C          -0.069194           
         C14       1.0000    0.77080   0.96130   0.56708   Biso      1.000     C          0.598154  
         C15       1.0000    0.13440   0.83980   0.59936   Biso      1.000     C          -0.029665           
         C16       1.0000    0.96990   0.87160   0.63192   Biso      1.000     C          0.026056  
         C17       1.0000    0.81590   0.93610   0.61902   Biso      1.000     C          -0.035536           
         C18       1.0000    0.67930   0.96910   0.65366   Biso      1.000     C          -0.105118           
         C19       1.0000    0.67390   0.93830   0.70153   Biso      1.000     C          -0.069198           
         C20       1.0000    0.10150   0.77420   0.69502   Biso      1.000     C          -0.084475           
         C21       1.0000    0.95920   0.83940   0.68068   Biso      1.000     C          0.025671  
         C22       1.0000    0.80650   0.87250   0.71463   Biso      1.000     C          -0.084203           
         C23       1.0000    0.79310   0.83990   0.76552   Biso      1.000     C          0.460932  
         C24       1.0000    0.72470   0.65710   0.89129   Biso      1.000     C          0.11103   
         C25       1.0000    0.72370   0.69170   0.84447   Biso      1.000     C          -0.206525           
         C26       1.0000    0.26120   0.77280   0.61430   Biso      1.000     C          -0.103602           
         C27       1.0000    0.93490   0.74480   0.82730   Biso      1.000     C          0.252476  
         C28       1.0000    0.17930   0.46910   0.84634   Biso      1.000     C          -0.105123           
         C29       1.0000    0.46990   0.37160   0.86808   Biso      1.000     C          0.026055  
         C30       1.0000    0.78430   0.11210   0.44768   Biso      1.000     C          0.606422  
         C31       1.0000    0.22920   0.03870   0.43292   Biso      1.000     C          0.598154  
         C32       1.0000    0.75340   0.25970   0.33769   Biso      1.000     C          -0.078239           
         C33       1.0000    0.73880   0.22720   0.38570   Biso      1.000     C          -0.103603           
         C34       1.0000    0.86560   0.16020   0.40064   Biso      1.000     C          -0.029663           
         C35       1.0000    0.03010   0.12840   0.36808   Biso      1.000     C          0.026056  
         C36       1.0000    0.18410   0.06390   0.38098   Biso      1.000     C          -0.035536           
         C37       1.0000    0.32070   0.03090   0.34634   Biso      1.000     C          -0.105118           
         C38       1.0000    0.32610   0.06170   0.29847   Biso      1.000     C          -0.069198           
         C39       1.0000    0.89630   0.25670   0.25370   Biso      1.000     C          0.46052   
         C40       1.0000    0.89850   0.22580   0.30498   Biso      1.000     C          -0.084475           
         C41       1.0000    0.31590   0.43610   0.88098   Biso      1.000     C          -0.035532           
         C42       1.0000    0.04080   0.16060   0.31932   Biso      1.000     C          0.025671  
         C43       1.0000    0.20690   0.16010   0.23448   Biso      1.000     C          0.460932  
         C44       1.0000    0.27530   0.34290   0.10871   Biso      1.000     C          0.11103   
         C45       1.0000    0.27630   0.30830   0.15553   Biso      1.000     C          -0.206525           
         C46       1.0000    0.06510   0.25520   0.17270   Biso      1.000     C          0.252476  
         C47       1.0000    0.86540   0.23570   0.14334   Biso      1.000     C          -0.202333           
         C48       1.0000    0.87790   0.27310   0.09740   Biso      1.000     C          0.118028  
         C49       1.0000    0.71570   0.38790   0.94768   Biso      1.000     C          0.606421  
         C50       1.0000    0.27080   0.46130   0.93292   Biso      1.000     C          0.598153  
         C51       1.0000    0.74660   0.24030   0.83769   Biso      1.000     C          -0.078232           
         C52       1.0000    0.76120   0.27280   0.88570   Biso      1.000     C          -0.103604           
         C53       1.0000    0.63440   0.33980   0.90064   Biso      1.000     C          -0.029663           
         C54       1.0000    0.19350   0.12750   0.28537   Biso      1.000     C          -0.084203           
         C55       1.0000    0.13460   0.76430   0.85666   Biso      1.000     C          -0.202333           
         C56       1.0000    0.10370   0.74330   0.74630   Biso      1.000     C          0.46052   
         C57       1.0000    0.28430   0.61210   0.05232   Biso      1.000     C          0.606422  
         C58       1.0000    0.37790   0.77310   0.40260   Biso      1.000     C          0.118025  
         C59       1.0000    0.36540   0.73570   0.35666   Biso      1.000     C          -0.20233  
         C60       1.0000    0.56510   0.75520   0.32730   Biso      1.000     C          0.252476  
         C61       1.0000    0.77530   0.84290   0.39129   Biso      1.000     C          0.111029  
         C62       1.0000    0.70690   0.66010   0.26552   Biso      1.000     C          0.460933  
         C63       1.0000    0.69350   0.62750   0.21463   Biso      1.000     C          -0.084207           
         C64       1.0000    0.54080   0.66060   0.18068   Biso      1.000     C          0.025672  
         C65       1.0000    0.39850   0.72580   0.19502   Biso      1.000     C          -0.084482           
         C66       1.0000    0.39630   0.75670   0.24630   Biso      1.000     C          0.460521  
         C67       1.0000    0.77630   0.80830   0.34447   Biso      1.000     C          -0.206524           
         C68       1.0000    0.12210   0.72690   0.90260   Biso      1.000     C          0.118028  
         C69       1.0000    0.82070   0.53090   0.15366   Biso      1.000     C          -0.105123           
         C70       1.0000    0.68410   0.56390   0.11902   Biso      1.000     C          -0.035532           
         C71       1.0000    0.53010   0.62840   0.13192   Biso      1.000     C          0.026055  
         C72       1.0000    0.36560   0.66020   0.09936   Biso      1.000     C          -0.029664           
         C73       1.0000    0.23880   0.72720   0.11430   Biso      1.000     C          -0.103603           
         C74       1.0000    0.25340   0.75970   0.16231   Biso      1.000     C          -0.078232           
         C75       1.0000    0.72920   0.53870   0.06708   Biso      1.000     C          0.598153  
         C76       1.0000    0.82610   0.56170   0.20153   Biso      1.000     C          -0.069194           
         H1        1.0000    0.35980   0.74830   0.59170   Biso      1.000     H          0.133148  
         H2        1.0000    0.58620   0.01400   0.64490   Biso      1.000     H          0.124058  
         H3        1.0000    0.57920   0.96260   0.72500   Biso      1.000     H          0.124405  
         H4        1.0000    0.58180   0.62100   0.90370   Biso      1.000     H          0.100311  
         H5        1.0000    0.58330   0.67940   0.82490   Biso      1.000     H          0.148939  
         H6        1.0000    0.27730   0.80260   0.84560   Biso      1.000     H          0.151755  
         H7        1.0000    0.26020   0.73950   0.92280   Biso      1.000     H          0.105329  
         H8        1.0000    0.23980   0.76050   0.42280   Biso      1.000     H          0.10533   
         H9        1.0000    0.14020   0.75170   0.09170   Biso      1.000     H          0.133148  
         H10       1.0000    0.91380   0.48600   0.14490   Biso      1.000     H          0.124058  
         H11       1.0000    0.91820   0.87900   0.40370   Biso      1.000     H          0.100311  
         H12       1.0000    0.91670   0.82060   0.32490   Biso      1.000     H          0.148939  
         H13       1.0000    0.33690   0.69510   0.67200   Biso      1.000     H          0.127378  
         H14       1.0000    0.22270   0.69740   0.34560   Biso      1.000     H          0.151755  
         H15       1.0000    0.16310   0.80490   0.17200   Biso      1.000     H          0.127377  
         H16       1.0000    0.92080   0.53740   0.22500   Biso      1.000     H          0.124405  
         H17       1.0000    0.76020   0.23950   0.57720   Biso      1.000     H          0.105329  
         H18       1.0000    0.08330   0.17940   0.67510   Biso      1.000     H          0.148939  
         H19       1.0000    0.77730   0.30260   0.65440   Biso      1.000     H          0.151755  
         H20       1.0000    0.64020   0.25170   0.40830   Biso      1.000     H          0.133148  
         H21       1.0000    0.41380   0.98600   0.35510   Biso      1.000     H          0.124058  
         H22       1.0000    0.42080   0.03740   0.27500   Biso      1.000     H          0.124405  
         H23       1.0000    0.41820   0.37900   0.09630   Biso      1.000     H          0.100311  
         H24       1.0000    0.41670   0.32060   0.17510   Biso      1.000     H          0.148939  
         H25       1.0000    0.66310   0.30490   0.32800   Biso      1.000     H          0.127378  
         H26       1.0000    0.73980   0.26050   0.07720   Biso      1.000     H          0.105329  
         H27       1.0000    0.72270   0.19740   0.15440   Biso      1.000     H          0.151755  
         H28       1.0000    0.07920   0.46260   0.77500   Biso      1.000     H          0.124405  
         H29       1.0000    0.08180   0.12100   0.59630   Biso      1.000     H          0.100311  
         H30       1.0000    0.85980   0.24830   0.90830   Biso      1.000     H          0.133148  
         H31       1.0000    0.83690   0.19510   0.82800   Biso      1.000     H          0.127377  
         H32       1.0000    0.08620   0.51400   0.85510   Biso      1.000     H          0.124058  
         N1        1.0000    0.05570   0.22270   0.22224   Biso      1.000     N          -0.236279           
         N2        1.0000    0.57620   0.82650   0.41978   Biso      1.000     N          -0.22107  
         N3        1.0000    0.55570   0.72270   0.27776   Biso      1.000     N          -0.236279           
         N4        1.0000    0.92380   0.67350   0.91978   Biso      1.000     N          -0.22107  
         N5        1.0000    0.94430   0.77730   0.77776   Biso      1.000     N          -0.236279           
         N6        1.0000    0.42380   0.17350   0.58022   Biso      1.000     N          -0.22107  
         N7        1.0000    0.44430   0.27730   0.72224   Biso      1.000     N          -0.236279           
         N8        1.0000    0.07620   0.32650   0.08022   Biso      1.000     N          -0.22107  
         O1        1.0000    0.66100   0.86470   0.79599   Biso      1.000     O          -0.451709           
         O2        1.0000    0.24340   0.39850   0.96427   Biso      1.000     O          -0.520686           
         O3        1.0000    0.23770   0.54260   0.93907   Biso      1.000     O          -0.571911           
         O4        1.0000    0.76790   0.33820   0.98186   Biso      1.000     O          -0.536705           
         O5        1.0000    0.75220   0.47410   0.94604   Biso      1.000     O          -0.566381           
         O6        1.0000    0.73210   0.16180   0.48186   Biso      1.000     O          -0.536705           
         O7        1.0000    0.16100   0.36470   0.70401   Biso      1.000     O          -0.451709           
         O8        1.0000    0.74780   0.02590   0.44604   Biso      1.000     O          -0.566381           
         O9        1.0000    0.26230   0.95740   0.43907   Biso      1.000     O          -0.571912           
         O10       1.0000    0.22910   0.69080   0.76105   Biso      1.000     O          -0.446563           
         O11       1.0000    0.25660   0.10150   0.46427   Biso      1.000     O          -0.520686           
         O12       1.0000    0.72910   0.19080   0.73895   Biso      1.000     O          -0.446563           
         O13       1.0000    0.25220   0.97410   0.55396   Biso      1.000     O          -0.566381           
         O14       1.0000    0.33900   0.13530   0.20401   Biso      1.000     O          -0.451709           
         O15       1.0000    0.73770   0.04260   0.56093   Biso      1.000     O          -0.571912           
         O16       1.0000    0.74340   0.89850   0.53573   Biso      1.000     O          -0.520686           
         O17       1.0000    0.83900   0.63530   0.29599   Biso      1.000     O          -0.451709           
         O18       1.0000    0.27090   0.80920   0.26105   Biso      1.000     O          -0.446563           
         O19       1.0000    0.24780   0.52590   0.05396   Biso      1.000     O          -0.566381           
         O20       1.0000    0.23210   0.66180   0.01814   Biso      1.000     O          -0.536705           
         O21       1.0000    0.76230   0.45740   0.06093   Biso      1.000     O          -0.571911           
         O22       1.0000    0.75660   0.60150   0.03573   Biso      1.000     O          -0.520686           
         O23       1.0000    0.77090   0.30920   0.23895   Biso      1.000     O          -0.446563           
         O24       1.0000    0.26790   0.83820   0.51814   Biso      1.000     O          -0.536705           
         Zn1       1.0000    0.46075   0.08923   0.52372   Biso      1.000     Zn          0.875588  
         Zn2       1.0000    0.03925   0.41077   0.02372   Biso      1.000     Zn          0.875588  
         Zn3       1.0000    0.53925   0.91077   0.47628   Biso      1.000     Zn          0.875588  
         Zn4       1.0000    0.96075   0.58923   0.97628   Biso      1.000     Zn          0.875588 