
##########################################################################
#               Crystallographic Information Format file
#               Produced by PyCifRW module
#
#  This is a CIF file.  CIF has been adopted by the International
#  Union of Crystallography as the standard for data archiving and
#  transmission.
#
#  For information on this file format, follow the CIF links at
#  http://www.iucr.org
##########################################################################

data_image0

_cell_length_a                          5.5797
_cell_length_b                          16.7931
_cell_length_c                          25.9231
_cell_angle_alpha                       90
_cell_angle_beta                        90
_cell_angle_gamma                       98.575
_symmetry_space_group_name_H-M          'P 1'
_symmetry_int_tables_number             1
loop_
  _symmetry_equiv_pos_as_xyz
         'x, y, z' 
loop_
  _atom_site_label
  _atom_site_occupancy
  _atom_site_fract_x
  _atom_site_fract_y
  _atom_site_fract_z
  _atom_site_thermal_displace_type
  _atom_site_B_iso_or_equiv
  _atom_site_type_symbol
  _atom_site_charge
         C1        1.0000    0.02960   0.78510   0.82956   Biso      1.000     C          -0.076225           
         C2        1.0000    0.16360   0.27590   0.76002   Biso      1.000     C          0.457304  
         C3        1.0000    0.19780   0.31080   0.70752   Biso      1.000     C          -0.084481           
         C4        1.0000    0.40240   0.36780   0.69579   Biso      1.000     C          0.026122000000000003          
         C5        1.0000    0.57550   0.39310   0.73406   Biso      1.000     C          -0.08240399999999999          
         C6        1.0000    0.55390   0.35740   0.78659   Biso      1.000     C          0.46495   
         C7        1.0000    0.11680   0.22780   0.92253   Biso      1.000     C          0.115297  
         C8        1.0000    0.14560   0.27390   0.87840   Biso      1.000     C          -0.20164300000000002          
         C9        1.0000    0.32770   0.26110   0.84472   Biso      1.000     C          0.25059899999999996           
         C10       1.0000    0.48560   0.20830   0.85719   Biso      1.000     C          -0.20351  
         C11       1.0000    0.44530   0.16490   0.90254   Biso      1.000     C          0.118672  
         C12       1.0000    0.22610   0.91400   0.94373   Biso      1.000     C          0.6139399999999999  
         C13       1.0000    0.77150   0.45010   0.72368   Biso      1.000     C          -0.078523           
         C14       1.0000    0.73610   0.97610   0.91971   Biso      1.000     C          0.605681  
         C15       1.0000    0.24990   0.87320   0.89232   Biso      1.000     C          -0.03088  
         C16       1.0000    0.43440   0.89936   0.85535   Biso      1.000     C          0.031655  
         C17       1.0000    0.64820   0.95410   0.86575   Biso      1.000     C          -0.037692           
         C18       1.0000    0.80620   0.98080   0.82672   Biso      1.000     C          -0.105222           
         C19       1.0000    0.77150   0.95010   0.77632   Biso      1.000     C          -0.078529           
         C20       1.0000    0.19780   0.81080   0.79248   Biso      1.000     C          -0.08447400000000001          
         C21       1.0000    0.40240   0.86780   0.80421   Biso      1.000     C          0.026119999999999997          
         C22       1.0000    0.57550   0.89310   0.76594   Biso      1.000     C          -0.082399           
         C23       1.0000    0.55390   0.85740   0.71341   Biso      1.000     C          0.464949  
         C24       1.0000    0.11680   0.72780   0.57747   Biso      1.000     C          0.115297  
         C25       1.0000    0.14560   0.77390   0.62160   Biso      1.000     C          -0.20164300000000002          
         C26       1.0000    0.05570   0.81680   0.87921   Biso      1.000     C          -0.103082           
         C27       1.0000    0.32770   0.76110   0.65528   Biso      1.000     C          0.2506    
         C28       1.0000    0.80620   0.48080   0.67328   Biso      1.000     C          -0.105226           
         C29       1.0000    0.43440   0.39936   0.64465   Biso      1.000     C          0.031655  
         C30       1.0000    0.77390   0.08600   0.05627   Biso      1.000     C          0.6139399999999999  
         C31       1.0000    0.26390   0.02390   0.08029   Biso      1.000     C          0.605681  
         C32       1.0000    0.97040   0.21490   0.17044   Biso      1.000     C          -0.076225           
         C33       1.0000    0.94430   0.18320   0.12079   Biso      1.000     C          -0.10308599999999998          
         C34       1.0000    0.75010   0.12680   0.10768   Biso      1.000     C          -0.030876           
         C35       1.0000    0.56560   0.10064   0.14465   Biso      1.000     C          0.031655  
         C36       1.0000    0.35180   0.04590   0.13425   Biso      1.000     C          -0.037692           
         C37       1.0000    0.19380   0.01920   0.17328   Biso      1.000     C          -0.105222           
         C38       1.0000    0.22850   0.04990   0.22368   Biso      1.000     C          -0.078529           
         C39       1.0000    0.83640   0.22410   0.26002   Biso      1.000     C          0.457304  
         C40       1.0000    0.80220   0.18920   0.20752   Biso      1.000     C          -0.08447400000000001          
         C41       1.0000    0.64820   0.45410   0.63425   Biso      1.000     C          -0.037689           
         C42       1.0000    0.59760   0.13220   0.19579   Biso      1.000     C          0.026119999999999997          
         C43       1.0000    0.44610   0.14260   0.28659   Biso      1.000     C          0.464949  
         C44       1.0000    0.88320   0.27220   0.42253   Biso      1.000     C          0.115297  
         C45       1.0000    0.85440   0.22610   0.37840   Biso      1.000     C          -0.20164300000000002          
         C46       1.0000    0.67230   0.23890   0.34472   Biso      1.000     C          0.25059899999999996           
         C47       1.0000    0.51440   0.29170   0.35719   Biso      1.000     C          -0.20351  
         C48       1.0000    0.55470   0.33510   0.40254   Biso      1.000     C          0.118671  
         C49       1.0000    0.22610   0.41400   0.55627   Biso      1.000     C          0.6139399999999999  
         C50       1.0000    0.73610   0.47610   0.58029   Biso      1.000     C          0.605681  
         C51       1.0000    0.02960   0.28510   0.67044   Biso      1.000     C          -0.076217           
         C52       1.0000    0.05570   0.31680   0.62079   Biso      1.000     C          -0.10308699999999998          
         C53       1.0000    0.24990   0.37320   0.60768   Biso      1.000     C          -0.030876           
         C54       1.0000    0.42450   0.10690   0.23406   Biso      1.000     C          -0.082399           
         C55       1.0000    0.48560   0.70830   0.64281   Biso      1.000     C          -0.20351  
         C56       1.0000    0.16360   0.77590   0.73998   Biso      1.000     C          0.457304  
         C57       1.0000    0.77390   0.58600   0.44373   Biso      1.000     C          0.6139399999999999  
         C58       1.0000    0.55470   0.83510   0.09746   Biso      1.000     C          0.11866900000000001           
         C59       1.0000    0.51440   0.79170   0.14281   Biso      1.000     C          -0.20351  
         C60       1.0000    0.67230   0.73890   0.15528   Biso      1.000     C          0.250601  
         C61       1.0000    0.88320   0.77220   0.07747   Biso      1.000     C          0.115297  
         C62       1.0000    0.44610   0.64260   0.21341   Biso      1.000     C          0.46495   
         C63       1.0000    0.42450   0.60690   0.26594   Biso      1.000     C          -0.08240399999999999          
         C64       1.0000    0.59760   0.63220   0.30421   Biso      1.000     C          0.026122000000000003          
         C65       1.0000    0.80220   0.68920   0.29248   Biso      1.000     C          -0.084481           
         C66       1.0000    0.83640   0.72410   0.23998   Biso      1.000     C          0.457304  
         C67       1.0000    0.85440   0.72610   0.12160   Biso      1.000     C          -0.20164100000000001          
         C68       1.0000    0.44530   0.66490   0.59746   Biso      1.000     C          0.118671  
         C69       1.0000    0.19380   0.51920   0.32672   Biso      1.000     C          -0.105226           
         C70       1.0000    0.35180   0.54590   0.36575   Biso      1.000     C          -0.037689           
         C71       1.0000    0.56560   0.60064   0.35535   Biso      1.000     C          0.031655  
         C72       1.0000    0.75010   0.62680   0.39232   Biso      1.000     C          -0.03088  
         C73       1.0000    0.94430   0.68320   0.37921   Biso      1.000     C          -0.103083           
         C74       1.0000    0.97040   0.71490   0.32956   Biso      1.000     C          -0.076217           
         C75       1.0000    0.26390   0.52390   0.41971   Biso      1.000     C          0.605681  
         C76       1.0000    0.22850   0.54990   0.27632   Biso      1.000     C          -0.078523           
         H1        1.0000    0.93660   0.79890   0.90450   Biso      1.000     H          0.130557  
         H2        1.0000    0.94140   0.02080   0.83380   Biso      1.000     H          0.128018  
         H3        1.0000    0.88310   0.96880   0.74970   Biso      1.000     H          0.125866  
         H4        1.0000    0.99000   0.73510   0.55430   Biso      1.000     H          0.10313599999999999           
         H5        1.0000    0.04350   0.81310   0.62860   Biso      1.000     H          0.152988  
         H6        1.0000    0.61790   0.70180   0.66470   Biso      1.000     H          0.148785  
         H7        1.0000    0.55210   0.62810   0.58840   Biso      1.000     H          0.10351400000000001           
         H8        1.0000    0.44790   0.87190   0.08840   Biso      1.000     H          0.10351400000000001           
         H9        1.0000    0.06340   0.70110   0.40450   Biso      1.000     H          0.130557  
         H10       1.0000    0.05860   0.47920   0.33380   Biso      1.000     H          0.128019  
         H11       1.0000    0.01000   0.76490   0.05430   Biso      1.000     H          0.10313599999999999           
         H12       1.0000    0.95650   0.68690   0.12860   Biso      1.000     H          0.152988  
         H13       1.0000    0.89480   0.74560   0.82140   Biso      1.000     H          0.12249000000000002           
         H14       1.0000    0.38210   0.79820   0.16470   Biso      1.000     H          0.148785  
         H15       1.0000    0.10520   0.75440   0.32140   Biso      1.000     H          0.12249000000000002           
         H16       1.0000    0.11690   0.53120   0.24970   Biso      1.000     H          0.125866  
         H17       1.0000    0.55210   0.12810   0.91160   Biso      1.000     H          0.10351400000000001           
         H18       1.0000    0.04350   0.31310   0.87140   Biso      1.000     H          0.152988  
         H19       1.0000    0.61790   0.20180   0.83530   Biso      1.000     H          0.148785  
         H20       1.0000    0.06340   0.20110   0.09550   Biso      1.000     H          0.130557  
         H21       1.0000    0.05860   0.97920   0.16620   Biso      1.000     H          0.128018  
         H22       1.0000    0.11690   0.03120   0.25030   Biso      1.000     H          0.125866  
         H23       1.0000    0.01000   0.26490   0.44570   Biso      1.000     H          0.10313599999999999           
         H24       1.0000    0.95650   0.18690   0.37140   Biso      1.000     H          0.152988  
         H25       1.0000    0.10520   0.25440   0.17860   Biso      1.000     H          0.12249000000000002           
         H26       1.0000    0.44790   0.37190   0.41160   Biso      1.000     H          0.10351400000000001           
         H27       1.0000    0.38210   0.29820   0.33530   Biso      1.000     H          0.148785  
         H28       1.0000    0.88310   0.46880   0.75030   Biso      1.000     H          0.125866  
         H29       1.0000    0.99000   0.23510   0.94570   Biso      1.000     H          0.10313499999999999           
         H30       1.0000    0.93660   0.29890   0.59550   Biso      1.000     H          0.130557  
         H31       1.0000    0.89480   0.24560   0.67860   Biso      1.000     H          0.12249000000000002           
         H32       1.0000    0.94140   0.52080   0.66620   Biso      1.000     H          0.128019  
         N1        1.0000    0.65210   0.19965   0.29542   Biso      1.000     N          -0.23281999999999997          
         N2        1.0000    0.73950   0.82687   0.06585   Biso      1.000     N          -0.21953499999999998          
         N3        1.0000    0.65210   0.69965   0.20458   Biso      1.000     N          -0.23281999999999997          
         N4        1.0000    0.26050   0.67313   0.56585   Biso      1.000     N          -0.21953499999999998          
         N5        1.0000    0.34790   0.80035   0.70458   Biso      1.000     N          -0.23281999999999997          
         N6        1.0000    0.26050   0.17313   0.93415   Biso      1.000     N          -0.219536           
         N7        1.0000    0.34790   0.30035   0.79542   Biso      1.000     N          -0.23281999999999997          
         N8        1.0000    0.73950   0.32687   0.43415   Biso      1.000     N          -0.21953499999999998          
         O1        1.0000    0.98920   0.72665   0.72833   Biso      1.000     O          -0.453608           
         O2        1.0000    0.71090   0.42007   0.54758   Biso      1.000     O          -0.54267  
         O3        1.0000    0.84520   0.54535   0.57375   Biso      1.000     O          -0.55028  
         O4        1.0000    0.27210   0.48946   0.55599   Biso      1.000     O          -0.5592779999999999           
         O5        1.0000    0.13760   0.36994   0.51989   Biso      1.000     O          -0.552408           
         O6        1.0000    0.72790   0.01054   0.05599   Biso      1.000     O          -0.5592779999999999           
         O7        1.0000    0.98920   0.22665   0.77167   Biso      1.000     O          -0.453608           
         O8        1.0000    0.86240   0.13006   0.01989   Biso      1.000     O          -0.552408           
         O9        1.0000    0.15480   0.95465   0.07375   Biso      1.000     O          -0.55028  
         O10       1.0000    0.70100   0.87413   0.67956   Biso      1.000     O          -0.448358           
         O11       1.0000    0.28910   0.07993   0.04758   Biso      1.000     O          -0.54267  
         O12       1.0000    0.70100   0.37413   0.82044   Biso      1.000     O          -0.448358           
         O13       1.0000    0.13760   0.86994   0.98011   Biso      1.000     O          -0.552408           
         O14       1.0000    0.01080   0.27335   0.27167   Biso      1.000     O          -0.453608           
         O15       1.0000    0.84520   0.04535   0.92625   Biso      1.000     O          -0.55028  
         O16       1.0000    0.71090   0.92007   0.95242   Biso      1.000     O          -0.54267  
         O17       1.0000    0.01080   0.77335   0.22833   Biso      1.000     O          -0.453608           
         O18       1.0000    0.29900   0.62587   0.17956   Biso      1.000     O          -0.448358           
         O19       1.0000    0.86240   0.63006   0.48011   Biso      1.000     O          -0.552408           
         O20       1.0000    0.72790   0.51054   0.44401   Biso      1.000     O          -0.5592779999999999           
         O21       1.0000    0.15480   0.45465   0.42625   Biso      1.000     O          -0.55028  
         O22       1.0000    0.28910   0.57993   0.45242   Biso      1.000     O          -0.54267  
         O23       1.0000    0.29900   0.12587   0.32044   Biso      1.000     O          -0.448358           
         O24       1.0000    0.27210   0.98946   0.94401   Biso      1.000     O          -0.5592779999999999           
         Zn1       1.0000    0.11923   0.07962   0.97913   Biso      1.000     Zn          0.8630399999999999  
         Zn2       1.0000    0.88077   0.42038   0.47913   Biso      1.000     Zn          0.8630389999999999  
         Zn3       1.0000    0.88077   0.92038   0.02087   Biso      1.000     Zn          0.8630389999999999  
         Zn4       1.0000    0.11923   0.57962   0.52087   Biso      1.000     Zn          0.8630399999999999 