
##########################################################################
#               Crystallographic Information Format file
#               Produced by PyCifRW module
#
#  This is a CIF file.  CIF has been adopted by the International
#  Union of Crystallography as the standard for data archiving and
#  transmission.
#
#  For information on this file format, follow the CIF links at
#  http://www.iucr.org
##########################################################################

data_image0

_cell_length_a                          5.5871
_cell_length_b                          25.9462
_cell_length_c                          17.4983
_cell_angle_alpha                       90
_cell_angle_beta                        96.031
_cell_angle_gamma                       90
_symmetry_space_group_name_H-M          'P 1'
_symmetry_int_tables_number             1
loop_
  _symmetry_equiv_pos_as_xyz
         'x, y, z' 
loop_
  _atom_site_label
  _atom_site_occupancy
  _atom_site_fract_x
  _atom_site_fract_y
  _atom_site_fract_z
  _atom_site_thermal_displace_type
  _atom_site_B_iso_or_equiv
  _atom_site_type_symbol
  _atom_site_charge
         C1        1.0000    0.76990   0.05090   0.09160   Biso      1.000     C          0.615699  
         C2        1.0000    0.79120   0.30435   0.70850   Biso      1.000     C          -0.08428200000000001          
         C3        1.0000    0.59170   0.31346   0.65350   Biso      1.000     C          0.024656  
         C4        1.0000    0.42630   0.27368   0.63260   Biso      1.000     C          -0.077539           
         C5        1.0000    0.45450   0.22247   0.66990   Biso      1.000     C          0.461438  
         C6        1.0000    0.91290   0.09153   0.79370   Biso      1.000     C          0.11148399999999999           
         C7        1.0000    0.87800   0.13550   0.74970   Biso      1.000     C          -0.198705           
         C8        1.0000    0.68560   0.16669   0.76110   Biso      1.000     C          0.254188  
         C9        1.0000    0.52770   0.15196   0.81250   Biso      1.000     C          -0.209358           
         C10       1.0000    0.57220   0.10690   0.85410   Biso      1.000     C          0.116362  
         C11       1.0000    0.72970   0.92307   0.96500   Biso      1.000     C          0.606463  
         C12       1.0000    0.83260   0.25297   0.74360   Biso      1.000     C          0.458538  
         C13       1.0000    0.27030   0.07693   0.03500   Biso      1.000     C          0.606463  
         C14       1.0000    0.92320   0.10826   0.19480   Biso      1.000     C          -0.104175           
         C15       1.0000    0.74030   0.09885   0.13850   Biso      1.000     C          -0.029787           
         C16       1.0000    0.56150   0.13706   0.11810   Biso      1.000     C          0.029556  
         C17       1.0000    0.35520   0.12939   0.06440   Biso      1.000     C          -0.037193000000000004         
         C18       1.0000    0.20090   0.16982   0.04400   Biso      1.000     C          -0.108615           
         C19       1.0000    0.23610   0.21831   0.07850   Biso      1.000     C          -0.07814  
         C20       1.0000    0.83260   0.24703   0.24360   Biso      1.000     C          0.458538  
         C21       1.0000    0.79120   0.19565   0.20850   Biso      1.000     C          -0.08428200000000001          
         C22       1.0000    0.59170   0.18654   0.15350   Biso      1.000     C          0.024655  
         C23       1.0000    0.42630   0.22632   0.13260   Biso      1.000     C          -0.077528           
         C24       1.0000    0.94980   0.15699   0.23080   Biso      1.000     C          -0.078207           
         C25       1.0000    0.23610   0.28169   0.57850   Biso      1.000     C          -0.07812899999999999          
         C26       1.0000    0.20090   0.33018   0.54400   Biso      1.000     C          -0.108618           
         C27       1.0000    0.35520   0.37061   0.56440   Biso      1.000     C          -0.03719  
         C28       1.0000    0.05020   0.84301   0.76920   Biso      1.000     C          -0.07821499999999999          
         C29       1.0000    0.07680   0.89174   0.80520   Biso      1.000     C          -0.104174           
         C30       1.0000    0.25970   0.90115   0.86150   Biso      1.000     C          -0.029788           
         C31       1.0000    0.43850   0.86294   0.88190   Biso      1.000     C          0.029556  
         C32       1.0000    0.64480   0.87061   0.93560   Biso      1.000     C          -0.037193000000000004         
         C33       1.0000    0.79910   0.83018   0.95600   Biso      1.000     C          -0.108615           
         C34       1.0000    0.76390   0.78169   0.92150   Biso      1.000     C          -0.07814  
         C35       1.0000    0.16740   0.75297   0.75640   Biso      1.000     C          0.458537  
         C36       1.0000    0.20880   0.80435   0.79150   Biso      1.000     C          -0.084275           
         C37       1.0000    0.40830   0.81346   0.84650   Biso      1.000     C          0.024655  
         C38       1.0000    0.57370   0.77368   0.86740   Biso      1.000     C          -0.077528           
         C39       1.0000    0.54550   0.72247   0.83010   Biso      1.000     C          0.461437  
         C40       1.0000    0.08710   0.59153   0.70630   Biso      1.000     C          0.11148399999999999           
         C41       1.0000    0.12200   0.63550   0.75030   Biso      1.000     C          -0.198705           
         C42       1.0000    0.31440   0.66669   0.73890   Biso      1.000     C          0.254188  
         C43       1.0000    0.47230   0.65196   0.68750   Biso      1.000     C          -0.209358           
         C44       1.0000    0.42780   0.60690   0.64590   Biso      1.000     C          0.116362  
         C45       1.0000    0.76990   0.44910   0.59160   Biso      1.000     C          0.615699  
         C46       1.0000    0.27030   0.42307   0.53500   Biso      1.000     C          0.606463  
         C47       1.0000    0.94980   0.34301   0.73080   Biso      1.000     C          -0.078208           
         C48       1.0000    0.92320   0.39174   0.69480   Biso      1.000     C          -0.104175           
         C49       1.0000    0.74030   0.40115   0.63850   Biso      1.000     C          -0.029787           
         C50       1.0000    0.56150   0.36294   0.61810   Biso      1.000     C          0.029556  
         C51       1.0000    0.45450   0.27753   0.16990   Biso      1.000     C          0.461437  
         C52       1.0000    0.91290   0.40847   0.29370   Biso      1.000     C          0.111483  
         C53       1.0000    0.23010   0.94910   0.90840   Biso      1.000     C          0.615699  
         C54       1.0000    0.64480   0.62939   0.43560   Biso      1.000     C          -0.037193000000000004         
         C55       1.0000    0.16740   0.74703   0.25640   Biso      1.000     C          0.458538  
         C56       1.0000    0.57370   0.72632   0.36740   Biso      1.000     C          -0.077539           
         C57       1.0000    0.54550   0.77753   0.33010   Biso      1.000     C          0.461438  
         C58       1.0000    0.76390   0.71831   0.42150   Biso      1.000     C          -0.07812999999999999          
         C59       1.0000    0.43850   0.63706   0.38190   Biso      1.000     C          0.029556  
         C60       1.0000    0.08710   0.90847   0.20630   Biso      1.000     C          0.111483  
         C61       1.0000    0.23010   0.55090   0.40840   Biso      1.000     C          0.615699  
         C62       1.0000    0.12200   0.86450   0.25030   Biso      1.000     C          -0.198704           
         C63       1.0000    0.72970   0.57693   0.46500   Biso      1.000     C          0.606463  
         C64       1.0000    0.31440   0.83331   0.23890   Biso      1.000     C          0.254188  
         C65       1.0000    0.40830   0.68654   0.34650   Biso      1.000     C          0.024656  
         C66       1.0000    0.20880   0.69565   0.29150   Biso      1.000     C          -0.08428200000000001          
         C67       1.0000    0.47230   0.84804   0.18750   Biso      1.000     C          -0.209358           
         C68       1.0000    0.05020   0.65699   0.26920   Biso      1.000     C          -0.078208           
         C69       1.0000    0.42780   0.89310   0.14590   Biso      1.000     C          0.116362  
         C70       1.0000    0.57220   0.39310   0.35410   Biso      1.000     C          0.116362  
         C71       1.0000    0.07680   0.60826   0.30520   Biso      1.000     C          -0.104175           
         C72       1.0000    0.52770   0.34804   0.31250   Biso      1.000     C          -0.20935900000000002          
         C73       1.0000    0.25970   0.59885   0.36150   Biso      1.000     C          -0.029787           
         C74       1.0000    0.68560   0.33331   0.26110   Biso      1.000     C          0.254188  
         C75       1.0000    0.87800   0.36450   0.24970   Biso      1.000     C          -0.198702           
         C76       1.0000    0.79910   0.66982   0.45600   Biso      1.000     C          -0.108616           
         H1        1.0000    0.12960   0.25490   0.56450   Biso      1.000     H          0.12483599999999999           
         H2        1.0000    0.87040   0.74510   0.43550   Biso      1.000     H          0.12483599999999999           
         H3        1.0000    0.92840   0.66480   0.49320   Biso      1.000     H          0.12908599999999998           
         H4        1.0000    0.98160   0.35620   0.21330   Biso      1.000     H          0.151385  
         H5        1.0000    0.04420   0.42940   0.28700   Biso      1.000     H          0.101905  
         H6        1.0000    0.07460   0.33730   0.76930   Biso      1.000     H          0.12623499999999999           
         H7        1.0000    0.95580   0.92940   0.21300   Biso      1.000     H          0.101905  
         H8        1.0000    0.60660   0.67200   0.68080   Biso      1.000     H          0.14895999999999998           
         H9        1.0000    0.01840   0.85620   0.28670   Biso      1.000     H          0.151385  
         H10       1.0000    0.01840   0.64380   0.78670   Biso      1.000     H          0.151385  
         H11       1.0000    0.95580   0.57060   0.71300   Biso      1.000     H          0.101905  
         H12       1.0000    0.60660   0.82800   0.18080   Biso      1.000     H          0.14895999999999998           
         H13       1.0000    0.53460   0.90330   0.11150   Biso      1.000     H          0.104816  
         H14       1.0000    0.87040   0.75490   0.93550   Biso      1.000     H          0.12483699999999999           
         H15       1.0000    0.92840   0.83520   0.99320   Biso      1.000     H          0.12908599999999998           
         H16       1.0000    0.96790   0.91790   0.79020   Biso      1.000     H          0.133074  
         H17       1.0000    0.92540   0.83730   0.73070   Biso      1.000     H          0.12623499999999999           
         H18       1.0000    0.03210   0.41790   0.70980   Biso      1.000     H          0.133074  
         H19       1.0000    0.53460   0.59670   0.61150   Biso      1.000     H          0.104816  
         H20       1.0000    0.07160   0.33520   0.50680   Biso      1.000     H          0.12908699999999998           
         H21       1.0000    0.04420   0.07060   0.78700   Biso      1.000     H          0.101905  
         H22       1.0000    0.12960   0.24510   0.06450   Biso      1.000     H          0.12483699999999999           
         H23       1.0000    0.07160   0.16480   0.00680   Biso      1.000     H          0.12908599999999998           
         H24       1.0000    0.03210   0.08210   0.20980   Biso      1.000     H          0.133074  
         H25       1.0000    0.07460   0.16270   0.26930   Biso      1.000     H          0.12623499999999999           
         H26       1.0000    0.96790   0.58210   0.29020   Biso      1.000     H          0.133074  
         H27       1.0000    0.46540   0.40330   0.38850   Biso      1.000     H          0.104816  
         H28       1.0000    0.92540   0.66270   0.23070   Biso      1.000     H          0.12623499999999999           
         H29       1.0000    0.39340   0.17200   0.81920   Biso      1.000     H          0.14895999999999998           
         H30       1.0000    0.39340   0.32800   0.31920   Biso      1.000     H          0.14896099999999998           
         H31       1.0000    0.98160   0.14380   0.71330   Biso      1.000     H          0.151385  
         H32       1.0000    0.46540   0.09670   0.88850   Biso      1.000     H          0.104816  
         N1        1.0000    0.65700   0.28447   0.22240   Biso      1.000     N          -0.23078800000000002          
         N2        1.0000    0.23380   0.92238   0.15426   Biso      1.000     N          -0.210761           
         N3        1.0000    0.34300   0.78447   0.27760   Biso      1.000     N          -0.23078800000000002          
         N4        1.0000    0.65700   0.21553   0.72240   Biso      1.000     N          -0.23078800000000002          
         N5        1.0000    0.76620   0.42238   0.34574   Biso      1.000     N          -0.210761           
         N6        1.0000    0.23380   0.57762   0.65426   Biso      1.000     N          -0.21076199999999998          
         N7        1.0000    0.34300   0.71553   0.77760   Biso      1.000     N          -0.23078800000000002          
         N8        1.0000    0.76620   0.07762   0.84574   Biso      1.000     N          -0.210761           
         O1        1.0000    0.99380   0.75740   0.21130   Biso      1.000     O          -0.44978900000000005          
         O2        1.0000    0.00620   0.25740   0.28870   Biso      1.000     O          -0.44978900000000005          
         O3        1.0000    0.31450   0.31304   0.15533   Biso      1.000     O          -0.45459700000000003          
         O4        1.0000    0.85340   0.01183   0.12738   Biso      1.000     O          -0.552288           
         O5        1.0000    0.14660   0.51183   0.37262   Biso      1.000     O          -0.552288           
         O6        1.0000    0.26420   0.55616   0.48002   Biso      1.000     O          -0.560122           
         O7        1.0000    0.68550   0.81304   0.34467   Biso      1.000     O          -0.45459700000000003          
         O8        1.0000    0.17010   0.07555   0.96761   Biso      1.000     O          -0.554416           
         O9        1.0000    0.28700   0.04098   0.08316   Biso      1.000     O          -0.5365840000000001           
         O10       1.0000    0.28700   0.45902   0.58316   Biso      1.000     O          -0.5365840000000001           
         O11       1.0000    0.82990   0.57555   0.53239   Biso      1.000     O          -0.554416           
         O12       1.0000    0.99380   0.74260   0.71130   Biso      1.000     O          -0.44978900000000005          
         O13       1.0000    0.68550   0.68696   0.84467   Biso      1.000     O          -0.45459700000000003          
         O14       1.0000    0.14660   0.98817   0.87262   Biso      1.000     O          -0.552288           
         O15       1.0000    0.26420   0.94384   0.98002   Biso      1.000     O          -0.560122           
         O16       1.0000    0.82990   0.92445   0.03239   Biso      1.000     O          -0.554416           
         O17       1.0000    0.71300   0.95902   0.91684   Biso      1.000     O          -0.5365840000000001           
         O18       1.0000    0.71300   0.54098   0.41684   Biso      1.000     O          -0.5365840000000001           
         O19       1.0000    0.73580   0.44384   0.51998   Biso      1.000     O          -0.560122           
         O20       1.0000    0.85340   0.48817   0.62738   Biso      1.000     O          -0.552288           
         O21       1.0000    0.31450   0.18696   0.65533   Biso      1.000     O          -0.45459700000000003          
         O22       1.0000    0.00620   0.24260   0.78870   Biso      1.000     O          -0.44978900000000005          
         O23       1.0000    0.73580   0.05616   0.01998   Biso      1.000     O          -0.560122           
         O24       1.0000    0.17010   0.42445   0.46761   Biso      1.000     O          -0.554416           
         Zn1       1.0000    0.10794   0.52677   0.57193   Biso      1.000     Zn          0.8566540000000001  
         Zn2       1.0000    0.10794   0.97323   0.07193   Biso      1.000     Zn          0.8566540000000001  
         Zn3       1.0000    0.89206   0.02677   0.92807   Biso      1.000     Zn          0.8566540000000001  
         Zn4       1.0000    0.89206   0.47323   0.42807   Biso      1.000     Zn          0.8566540000000001 