
##########################################################################
#               Crystallographic Information Format file
#               Produced by PyCifRW module
#
#  This is a CIF file.  CIF has been adopted by the International
#  Union of Crystallography as the standard for data archiving and
#  transmission.
#
#  For information on this file format, follow the CIF links at
#  http://www.iucr.org
##########################################################################

data_image0

_cell_length_a                          13.5285
_cell_length_b                          13.5285
_cell_length_c                          14.277
_cell_angle_alpha                       61.7197
_cell_angle_beta                        61.7197
_cell_angle_gamma                       60
_symmetry_space_group_name_H-M          'P 1'
_symmetry_int_tables_number             1
loop_
  _symmetry_equiv_pos_as_xyz
         'x, y, z' 
loop_
  _atom_site_label
  _atom_site_occupancy
  _atom_site_fract_x
  _atom_site_fract_y
  _atom_site_fract_z
  _atom_site_thermal_displace_type
  _atom_site_B_iso_or_equiv
  _atom_site_type_symbol
  _atom_site_charge
         C1        1.0000    0.94923   0.10113   0.10761   Biso      1.000     C          -0.028211           
         C2        1.0000    0.39887   0.55077   0.39239   Biso      1.000     C          -0.028211           
         C3        1.0000    0.55077   0.65797   0.39239   Biso      1.000     C          -0.028207999999999997         
         C4        1.0000    0.65797   0.39887   0.39239   Biso      1.000     C          -0.028208999999999998         
         C5        1.0000    0.10113   0.84203   0.10761   Biso      1.000     C          -0.028208999999999998         
         C6        1.0000    0.84203   0.94923   0.10761   Biso      1.000     C          -0.028207999999999997         
         C7        1.0000    0.60113   0.44923   0.60761   Biso      1.000     C          -0.028212           
         C8        1.0000    0.44923   0.34203   0.60761   Biso      1.000     C          -0.028207999999999997         
         C9        1.0000    0.15797   0.05077   0.89239   Biso      1.000     C          -0.028207           
         C10       1.0000    0.05077   0.89887   0.89239   Biso      1.000     C          -0.028211           
         C11       1.0000    0.89887   0.15797   0.89239   Biso      1.000     C          -0.028208999999999998         
         C12       1.0000    0.34203   0.60113   0.60761   Biso      1.000     C          -0.028208999999999998         
         Li1       1.0000    0.40725   0.09275   0.75000   Biso      1.000     Li          0.8505280000000001  
         Li2       1.0000    0.25000   0.59275   0.25000   Biso      1.000     Li          0.8505290000000001  
         Li3       1.0000    0.90725   0.25000   0.25000   Biso      1.000     Li          0.8505290000000001  
         Li4       1.0000    0.59275   0.90725   0.25000   Biso      1.000     Li          0.8505280000000001  
         Li5       1.0000    0.75000   0.40725   0.75000   Biso      1.000     Li          0.8505290000000001  
         Li6       1.0000    0.09275   0.75000   0.75000   Biso      1.000     Li          0.8505299999999999  
         Mo1       1.0000    0.00000   0.00000   0.00000   Biso      1.000     Mo          0.681682  
         Mo2       1.0000    0.50000   0.50000   0.50000   Biso      1.000     Mo          0.681683  
         N1        1.0000    0.74243   0.34573   0.33491   Biso      1.000     N          -0.51067  
         N2        1.0000    0.15427   0.75757   0.16509   Biso      1.000     N          -0.51067  
         N3        1.0000    0.92307   0.15427   0.16509   Biso      1.000     N          -0.510667           
         N4        1.0000    0.75757   0.92307   0.16509   Biso      1.000     N          -0.51067  
         N5        1.0000    0.65427   0.42307   0.66509   Biso      1.000     N          -0.510666           
         N6        1.0000    0.84573   0.24243   0.83491   Biso      1.000     N          -0.510671           
         N7        1.0000    0.25757   0.65427   0.66509   Biso      1.000     N          -0.51067  
         N8        1.0000    0.07693   0.84573   0.83491   Biso      1.000     N          -0.510667           
         N9        1.0000    0.24243   0.07693   0.83491   Biso      1.000     N          -0.51067  
         N10       1.0000    0.57693   0.74243   0.33491   Biso      1.000     N          -0.5106689999999999           
         N11       1.0000    0.42307   0.25757   0.66509   Biso      1.000     N          -0.5106689999999999           
         N12       1.0000    0.34573   0.57693   0.33491   Biso      1.000     N          -0.510667 