
##########################################################################
#               Crystallographic Information Format file
#               Produced by PyCifRW module
#
#  This is a CIF file.  CIF has been adopted by the International
#  Union of Crystallography as the standard for data archiving and
#  transmission.
#
#  For information on this file format, follow the CIF links at
#  http://www.iucr.org
##########################################################################

data_image0

_cell_length_a                          12.3896
_cell_length_b                          12.4401
_cell_length_c                          16.5787
_cell_angle_alpha                       83.9804
_cell_angle_beta                        77.8429
_cell_angle_gamma                       60.1343
_symmetry_space_group_name_H-M          'P 1'
_symmetry_int_tables_number             1
loop_
  _symmetry_equiv_pos_as_xyz
         'x, y, z' 
loop_
  _atom_site_label
  _atom_site_occupancy
  _atom_site_fract_x
  _atom_site_fract_y
  _atom_site_fract_z
  _atom_site_thermal_displace_type
  _atom_site_B_iso_or_equiv
  _atom_site_type_symbol
  _atom_site_charge
         C1        1.0000    0.98470   0.07540   0.35900   Biso      1.000     C          -0.14697000000000002          
         C2        1.0000    0.16670   0.28160   0.45770   Biso      1.000     C          -0.017565           
         C3        1.0000    0.28140   0.15660   0.44440   Biso      1.000     C          0.6032930000000001  
         C4        1.0000    0.65060   0.63200   0.71400   Biso      1.000     C          -0.032688           
         C5        1.0000    0.04760   0.07520   0.09970   Biso      1.000     C          -0.113848           
         C6        1.0000    0.74870   0.23800   0.65510   Biso      1.000     C          -0.11505699999999999          
         C7        1.0000    0.59330   0.43440   0.08290   Biso      1.000     C          -0.14355199999999999          
         C8        1.0000    0.39170   0.68220   0.90830   Biso      1.000     C          -0.114826           
         C9        1.0000    0.84330   0.24920   0.79030   Biso      1.000     C          0.080926  
         C10       1.0000    0.00570   0.07680   0.27160   Biso      1.000     C          0.082548  
         C11       1.0000    0.11530   0.07720   0.22280   Biso      1.000     C          -0.16811900000000002          
         C12       1.0000    0.13590   0.07620   0.13980   Biso      1.000     C          -0.025037           
         C13       1.0000    0.25220   0.07560   0.08970   Biso      1.000     C          0.628846  
         C14       1.0000    0.95240   0.92480   0.90030   Biso      1.000     C          -0.113848           
         C15       1.0000    0.89760   0.24720   0.85810   Biso      1.000     C          -0.147031           
         C16       1.0000    0.72960   0.24260   0.80170   Biso      1.000     C          -0.17011700000000002          
         C17       1.0000    0.51350   0.63900   0.01330   Biso      1.000     C          -0.167638           
         C18       1.0000    0.57380   0.21180   0.74860   Biso      1.000     C          0.667471  
         C19       1.0000    0.68540   0.23440   0.73490   Biso      1.000     C          -0.032312           
         C20       1.0000    0.52840   0.51840   0.02440   Biso      1.000     C          0.08661100000000001           
         C21       1.0000    0.44830   0.71840   0.95770   Biso      1.000     C          -0.017536000000000003         
         C22       1.0000    0.43800   0.84340   0.94440   Biso      1.000     C          0.603297  
         C23       1.0000    0.71740   0.63200   0.78600   Biso      1.000     C          -0.032694           
         C24       1.0000    0.87720   0.07520   0.40030   Biso      1.000     C          -0.113844           
         C25       1.0000    0.01330   0.23800   0.84490   Biso      1.000     C          -0.115034           
         C26       1.0000    0.97230   0.43440   0.41710   Biso      1.000     C          -0.143549           
         C27       1.0000    0.92610   0.68220   0.59170   Biso      1.000     C          -0.11481400000000001          
         C28       1.0000    0.90750   0.24920   0.70970   Biso      1.000     C          0.08093   
         C29       1.0000    0.04680   0.48160   0.52440   Biso      1.000     C          0.08660599999999999           
         C30       1.0000    0.91980   0.76560   0.23490   Biso      1.000     C          -0.032333999999999995         
         C31       1.0000    0.78560   0.78820   0.24860   Biso      1.000     C          0.6674770000000001  
         C32       1.0000    0.15250   0.36100   0.51330   Biso      1.000     C          -0.16761099999999998          
         C33       1.0000    0.60830   0.31780   0.09170   Biso      1.000     C          -0.114818           
         C34       1.0000    0.15670   0.75080   0.20970   Biso      1.000     C          0.080926  
         C35       1.0000    0.99430   0.92320   0.72840   Biso      1.000     C          0.08254700000000001           
         C36       1.0000    0.88470   0.92280   0.77720   Biso      1.000     C          -0.16811900000000002          
         C37       1.0000    0.86410   0.92380   0.86020   Biso      1.000     C          -0.025036000000000003         
         C38       1.0000    0.74780   0.92440   0.91030   Biso      1.000     C          0.628846  
         C39       1.0000    0.01530   0.92460   0.64100   Biso      1.000     C          -0.14697000000000002          
         C40       1.0000    0.10240   0.75280   0.14190   Biso      1.000     C          -0.147031           
         C41       1.0000    0.27040   0.75740   0.19830   Biso      1.000     C          -0.17011700000000002          
         C42       1.0000    0.48650   0.36100   0.98670   Biso      1.000     C          -0.167638           
         C43       1.0000    0.42620   0.78820   0.25140   Biso      1.000     C          0.667471  
         C44       1.0000    0.31460   0.76560   0.26510   Biso      1.000     C          -0.032314999999999997         
         C45       1.0000    0.47160   0.48160   0.97560   Biso      1.000     C          0.08661   
         C46       1.0000    0.91750   0.07680   0.22840   Biso      1.000     C          0.082552  
         C47       1.0000    0.55170   0.28160   0.04230   Biso      1.000     C          -0.017537           
         C48       1.0000    0.28260   0.36800   0.21400   Biso      1.000     C          -0.032694           
         C49       1.0000    0.12280   0.92480   0.59970   Biso      1.000     C          -0.113844           
         C50       1.0000    0.98670   0.76200   0.15510   Biso      1.000     C          -0.115034           
         C51       1.0000    0.02770   0.56560   0.58290   Biso      1.000     C          -0.143541           
         C52       1.0000    0.07390   0.31780   0.40830   Biso      1.000     C          -0.11480699999999999          
         C53       1.0000    0.09250   0.75080   0.29030   Biso      1.000     C          0.080932  
         C54       1.0000    0.08250   0.92320   0.77160   Biso      1.000     C          0.082552  
         C55       1.0000    0.19250   0.92280   0.72280   Biso      1.000     C          -0.168133           
         C56       1.0000    0.21210   0.92380   0.63980   Biso      1.000     C          -0.025016999999999998         
         C57       1.0000    0.32780   0.92440   0.58970   Biso      1.000     C          0.628848  
         C58       1.0000    0.06010   0.92460   0.85900   Biso      1.000     C          -0.14695899999999998          
         C59       1.0000    0.14480   0.75280   0.35810   Biso      1.000     C          -0.147044           
         C60       1.0000    0.97220   0.75740   0.30170   Biso      1.000     C          -0.170103           
         C61       1.0000    0.56200   0.15660   0.05560   Biso      1.000     C          0.603297  
         C62       1.0000    0.80750   0.07720   0.27720   Biso      1.000     C          -0.168133           
         C63       1.0000    0.78790   0.07620   0.36020   Biso      1.000     C          -0.025016999999999998         
         C64       1.0000    0.67220   0.07560   0.41030   Biso      1.000     C          0.628848  
         C65       1.0000    0.42050   0.15900   0.25000   Biso      1.000     C          0.605011  
         C66       1.0000    0.57950   0.84100   0.75000   Biso      1.000     C          0.605011  
         C67       1.0000    0.34940   0.36800   0.28600   Biso      1.000     C          -0.032688           
         C68       1.0000    0.40670   0.56560   0.91710   Biso      1.000     C          -0.143544           
         C69       1.0000    0.71860   0.84340   0.55560   Biso      1.000     C          0.6032930000000001  
         C70       1.0000    0.83330   0.71840   0.54230   Biso      1.000     C          -0.017564           
         C71       1.0000    0.25130   0.76200   0.34490   Biso      1.000     C          -0.11503599999999999          
         C72       1.0000    0.08020   0.23440   0.76510   Biso      1.000     C          -0.032333           
         C73       1.0000    0.84750   0.63900   0.48670   Biso      1.000     C          -0.16761199999999998          
         C74       1.0000    0.02780   0.24260   0.69830   Biso      1.000     C          -0.170104           
         C75       1.0000    0.95320   0.51840   0.47560   Biso      1.000     C          0.086607  
         C76       1.0000    0.93990   0.07540   0.14100   Biso      1.000     C          -0.14695899999999998          
         C77       1.0000    0.21440   0.21180   0.75140   Biso      1.000     C          0.6674770000000001  
         C78       1.0000    0.85520   0.24720   0.64190   Biso      1.000     C          -0.14702300000000001          
         H1        1.0000    0.71700   0.23380   0.61020   Biso      1.000     H          0.11653800000000002           
         H2        1.0000    0.62740   0.45920   0.11710   Biso      1.000     H          0.122501  
         H3        1.0000    0.34490   0.73700   0.87050   Biso      1.000     H          0.121021  
         H4        1.0000    0.17420   0.07800   0.24910   Biso      1.000     H          0.12850699999999998           
         H5        1.0000    0.04230   0.07480   0.38730   Biso      1.000     H          0.126119  
         H6        1.0000    0.85350   0.25220   0.91170   Biso      1.000     H          0.117442  
         H7        1.0000    0.68530   0.24380   0.85470   Biso      1.000     H          0.12030999999999999           
         H8        1.0000    0.55000   0.66420   0.04550   Biso      1.000     H          0.11564200000000001           
         H9        1.0000    0.70350   0.78860   0.82620   Biso      1.000     H          0.312299  
         H10       1.0000    0.69100   0.59740   0.83640   Biso      1.000     H          0.090903  
         H11       1.0000    0.06320   0.07420   0.04230   Biso      1.000     H          0.112907  
         H12       1.0000    0.04920   0.23380   0.88980   Biso      1.000     H          0.11653499999999999           
         H13       1.0000    0.91340   0.45920   0.38290   Biso      1.000     H          0.1225    
         H14       1.0000    0.91810   0.73700   0.62950   Biso      1.000     H          0.121012  
         H15       1.0000    0.74780   0.07800   0.25090   Biso      1.000     H          0.12850699999999998           
         H16       1.0000    0.88290   0.07480   0.11270   Biso      1.000     H          0.126118  
         H17       1.0000    0.89430   0.25220   0.58830   Biso      1.000     H          0.117443  
         H18       1.0000    0.07090   0.24380   0.64530   Biso      1.000     H          0.120308  
         H19       1.0000    0.78580   0.66420   0.45450   Biso      1.000     H          0.11564200000000001           
         H20       1.0000    0.80890   0.58540   0.77040   Biso      1.000     H          0.0999    
         H21       1.0000    0.86260   0.07420   0.45770   Biso      1.000     H          0.11290599999999999           
         H22       1.0000    0.71160   0.59740   0.66360   Biso      1.000     H          0.090902  
         H23       1.0000    0.50790   0.78860   0.67380   Biso      1.000     H          0.312302  
         H24       1.0000    0.49210   0.21140   0.32620   Biso      1.000     H          0.312302  
         H25       1.0000    0.28840   0.40260   0.33640   Biso      1.000     H          0.090902  
         H26       1.0000    0.39430   0.41460   0.27040   Biso      1.000     H          0.099897  
         H27       1.0000    0.93680   0.92580   0.95770   Biso      1.000     H          0.112907  
         H28       1.0000    0.28300   0.76620   0.38980   Biso      1.000     H          0.11653599999999999           
         H29       1.0000    0.37260   0.54080   0.88290   Biso      1.000     H          0.1225    
         H30       1.0000    0.65510   0.26300   0.12950   Biso      1.000     H          0.12102   
         H31       1.0000    0.82580   0.92200   0.75090   Biso      1.000     H          0.12850699999999998           
         H32       1.0000    0.95770   0.92520   0.61270   Biso      1.000     H          0.126119  
         H33       1.0000    0.14650   0.74780   0.08830   Biso      1.000     H          0.117442  
         H34       1.0000    0.31470   0.75620   0.14530   Biso      1.000     H          0.12030999999999999           
         H35       1.0000    0.45000   0.33580   0.95450   Biso      1.000     H          0.11564200000000001           
         H36       1.0000    0.29650   0.21140   0.17380   Biso      1.000     H          0.312299  
         H37       1.0000    0.30900   0.40260   0.16360   Biso      1.000     H          0.090903  
         H38       1.0000    0.19110   0.41460   0.22960   Biso      1.000     H          0.0999    
         H39       1.0000    0.13740   0.92580   0.54230   Biso      1.000     H          0.11290599999999999           
         H40       1.0000    0.95080   0.76620   0.11020   Biso      1.000     H          0.116534  
         H41       1.0000    0.08660   0.54080   0.61710   Biso      1.000     H          0.122499  
         H42       1.0000    0.08190   0.26300   0.37050   Biso      1.000     H          0.121012  
         H43       1.0000    0.25220   0.92200   0.74910   Biso      1.000     H          0.12850699999999998           
         H44       1.0000    0.11710   0.92520   0.88730   Biso      1.000     H          0.126118  
         H45       1.0000    0.92910   0.75620   0.35470   Biso      1.000     H          0.120308  
         H46       1.0000    0.21420   0.33580   0.54550   Biso      1.000     H          0.11564200000000001           
         H47       1.0000    0.60570   0.58540   0.72960   Biso      1.000     H          0.099897  
         H48       1.0000    0.10570   0.74780   0.41170   Biso      1.000     H          0.117444  
         La1       1.0000    0.48528   0.09346   0.59992   Biso      1.000     La          1.9493770000000001  
         La2       1.0000    0.57874   0.90654   0.09992   Biso      1.000     La          1.949368  
         La3       1.0000    0.51472   0.90654   0.40008   Biso      1.000     La          1.9493770000000001  
         La4       1.0000    0.42126   0.09346   0.90008   Biso      1.000     La          1.949368  
         N1        1.0000    0.67410   0.76180   0.79540   Biso      1.000     N          -0.40829  
         N2        1.0000    0.56410   0.76180   0.70460   Biso      1.000     N          -0.40829299999999996          
         N3        1.0000    0.32590   0.23820   0.20460   Biso      1.000     N          -0.40829  
         N4        1.0000    0.43590   0.23820   0.29540   Biso      1.000     N          -0.40829299999999996          
         O1        1.0000    0.73150   0.78120   0.31870   Biso      1.000     O          -0.642254           
         O2        1.0000    0.73850   0.80980   0.18550   Biso      1.000     O          -0.658194           
         O3        1.0000    0.35860   0.89240   0.51640   Biso      1.000     O          -0.6314649999999999           
         O4        1.0000    0.38860   0.95480   0.62590   Biso      1.000     O          -0.6503180000000001           
         O5        1.0000    0.51016   0.12388   0.01300   Biso      1.000     O          -0.704806           
         O6        1.0000    0.45170   0.80980   0.31450   Biso      1.000     O          -0.658195           
         O7        1.0000    0.48730   0.78120   0.18130   Biso      1.000     O          -0.642249           
         O8        1.0000    0.29280   0.08680   0.39010   Biso      1.000     O          -0.573929           
         O9        1.0000    0.74900   0.89240   0.98360   Biso      1.000     O          -0.631459           
         O10       1.0000    0.65660   0.95480   0.87410   Biso      1.000     O          -0.650312           
         O11       1.0000    0.62040   0.08680   0.10990   Biso      1.000     O          -0.573925           
         O12       1.0000    0.36596   0.12388   0.48700   Biso      1.000     O          -0.704803           
         O13       1.0000    0.54830   0.19020   0.68550   Biso      1.000     O          -0.658195           
         O14       1.0000    0.25100   0.10760   0.01640   Biso      1.000     O          -0.631459           
         O15       1.0000    0.51400   0.97200   0.75000   Biso      1.000     O          -0.6434310000000001           
         O16       1.0000    0.51270   0.21880   0.81870   Biso      1.000     O          -0.642249           
         O17       1.0000    0.37960   0.91320   0.89010   Biso      1.000     O          -0.573925           
         O18       1.0000    0.48984   0.87612   0.98700   Biso      1.000     O          -0.704806           
         O19       1.0000    0.61140   0.04520   0.37410   Biso      1.000     O          -0.6503180000000001           
         O20       1.0000    0.64140   0.10760   0.48360   Biso      1.000     O          -0.6314649999999999           
         O21       1.0000    0.26150   0.19020   0.81450   Biso      1.000     O          -0.658194           
         O22       1.0000    0.26850   0.21880   0.68130   Biso      1.000     O          -0.642254           
         O23       1.0000    0.70720   0.91320   0.60990   Biso      1.000     O          -0.573929           
         O24       1.0000    0.63404   0.87612   0.51300   Biso      1.000     O          -0.704803           
         O25       1.0000    0.34340   0.04520   0.12590   Biso      1.000     O          -0.650312           
         O26       1.0000    0.48600   0.02800   0.25000   Biso      1.000     O          -0.6434310000000001 