
##########################################################################
#               Crystallographic Information Format file
#               Produced by PyCifRW module
#
#  This is a CIF file.  CIF has been adopted by the International
#  Union of Crystallography as the standard for data archiving and
#  transmission.
#
#  For information on this file format, follow the CIF links at
#  http://www.iucr.org
##########################################################################

data_image0

_cell_length_a                          8.785
_cell_length_b                          12.332
_cell_length_c                          19.09
_cell_angle_alpha                       106.52
_cell_angle_beta                        90
_cell_angle_gamma                       90
_symmetry_space_group_name_H-M          'P 1'
_symmetry_int_tables_number             1
loop_
  _symmetry_equiv_pos_as_xyz
         'x, y, z' 
loop_
  _atom_site_label
  _atom_site_occupancy
  _atom_site_fract_x
  _atom_site_fract_y
  _atom_site_fract_z
  _atom_site_thermal_displace_type
  _atom_site_B_iso_or_equiv
  _atom_site_type_symbol
  _atom_site_charge
         C1        1.0000    0.33140   0.15292   0.88769   Biso      1.000     C          -0.120853           
         C2        1.0000    0.94030   0.46660   0.00764   Biso      1.000     C          0.089979  
         C3        1.0000    0.21390   0.82089   0.34887   Biso      1.000     C          0.07727   
         C4        1.0000    0.96770   0.40490   0.05857   Biso      1.000     C          -0.158707           
         C5        1.0000    0.12160   0.31320   0.74520   Biso      1.000     C          -0.131153           
         C6        1.0000    0.15850   0.42210   0.74802   Biso      1.000     C          -0.114355           
         C7        1.0000    0.27380   0.97100   0.57451   Biso      1.000     C          -0.115824           
         C8        1.0000    0.16020   0.14290   0.78789   Biso      1.000     C          -0.161436           
         C9        1.0000    0.70170   0.96540   0.47275   Biso      1.000     C          -0.147509           
         C10       1.0000    0.18710   0.25887   0.79385   Biso      1.000     C          0.094068  
         C11       1.0000    0.26080   0.48329   0.80132   Biso      1.000     C          -0.017755           
         C12       1.0000    0.35290   0.26620   0.89734   Biso      1.000     C          -0.138453           
         C13       1.0000    0.83980   0.85710   0.21211   Biso      1.000     C          -0.161436           
         C14       1.0000    0.32120   0.43404   0.85116   Biso      1.000     C          -0.160112           
         C15       1.0000    0.23420   0.09013   0.83191   Biso      1.000     C          -0.014123           
         C16       1.0000    0.21780   0.96399   0.81742   Biso      1.000     C          0.655572  
         C17       1.0000    0.36790   0.83803   0.64369   Biso      1.000     C          0.652626  
         C18       1.0000    0.39370   0.90541   0.59046   Biso      1.000     C          -0.028933           
         C19       1.0000    0.30930   0.60072   0.80334   Biso      1.000     C          0.610545  
         C20       1.0000    0.55970   0.96660   0.50764   Biso      1.000     C          0.089979  
         C21       1.0000    0.28610   0.32089   0.84887   Biso      1.000     C          0.07727   
         C22       1.0000    0.53230   0.90490   0.55857   Biso      1.000     C          -0.158695           
         C23       1.0000    0.62160   0.18680   0.75480   Biso      1.000     C          -0.131154           
         C24       1.0000    0.65850   0.07790   0.75198   Biso      1.000     C          -0.114355           
         C25       1.0000    0.19070   0.10072   0.30334   Biso      1.000     C          0.610545  
         C26       1.0000    0.77380   0.52900   0.92549   Biso      1.000     C          -0.115825           
         C27       1.0000    0.10630   0.40541   0.09046   Biso      1.000     C          -0.028921           
         C28       1.0000    0.28220   0.46399   0.31742   Biso      1.000     C          0.655572  
         C29       1.0000    0.73920   0.51671   0.19868   Biso      1.000     C          -0.017755           
         C30       1.0000    0.64710   0.73380   0.10266   Biso      1.000     C          -0.13846  
         C31       1.0000    0.66860   0.84708   0.11231   Biso      1.000     C          -0.120847           
         C32       1.0000    0.67880   0.56596   0.14884   Biso      1.000     C          -0.160112           
         C33       1.0000    0.76580   0.90987   0.16809   Biso      1.000     C          -0.014124           
         C34       1.0000    0.78220   0.03601   0.18258   Biso      1.000     C          0.655572  
         C35       1.0000    0.63210   0.16197   0.35631   Biso      1.000     C          0.652626  
         C36       1.0000    0.60630   0.09459   0.40954   Biso      1.000     C          -0.028934           
         C37       1.0000    0.69070   0.39928   0.19666   Biso      1.000     C          0.610545  
         C38       1.0000    0.44030   0.03340   0.49236   Biso      1.000     C          0.089978  
         C39       1.0000    0.71390   0.67911   0.15113   Biso      1.000     C          0.07727   
         C40       1.0000    0.46770   0.09510   0.44143   Biso      1.000     C          -0.158695           
         C41       1.0000    0.37840   0.81320   0.24520   Biso      1.000     C          -0.131153           
         C42       1.0000    0.34150   0.92210   0.24802   Biso      1.000     C          -0.114355           
         C43       1.0000    0.22620   0.47100   0.07451   Biso      1.000     C          -0.115825           
         C44       1.0000    0.33980   0.64290   0.28789   Biso      1.000     C          -0.161436           
         C45       1.0000    0.79830   0.46540   0.97275   Biso      1.000     C          -0.1475   
         C46       1.0000    0.31290   0.75887   0.29385   Biso      1.000     C          0.094068  
         C47       1.0000    0.23920   0.98329   0.30132   Biso      1.000     C          -0.017755           
         C48       1.0000    0.14710   0.76620   0.39734   Biso      1.000     C          -0.138459           
         C49       1.0000    0.16860   0.65292   0.38769   Biso      1.000     C          -0.120847           
         C50       1.0000    0.17880   0.93404   0.35116   Biso      1.000     C          -0.160112           
         C51       1.0000    0.26580   0.59013   0.33191   Biso      1.000     C          -0.014124           
         C52       1.0000    0.13210   0.33803   0.14369   Biso      1.000     C          0.652625  
         C53       1.0000    0.66020   0.35710   0.71211   Biso      1.000     C          -0.161436           
         C54       1.0000    0.20170   0.53460   0.02725   Biso      1.000     C          -0.147501           
         C55       1.0000    0.68710   0.24113   0.70615   Biso      1.000     C          0.094068  
         C56       1.0000    0.87840   0.68680   0.25480   Biso      1.000     C          -0.131154           
         C57       1.0000    0.84150   0.57790   0.25198   Biso      1.000     C          -0.114355           
         C58       1.0000    0.72620   0.02900   0.42549   Biso      1.000     C          -0.115815           
         C59       1.0000    0.81290   0.74113   0.20615   Biso      1.000     C          0.094068  
         C60       1.0000    0.03230   0.59510   0.94143   Biso      1.000     C          -0.158707           
         C61       1.0000    0.78610   0.17911   0.65113   Biso      1.000     C          0.07727   
         C62       1.0000    0.05970   0.53340   0.99236   Biso      1.000     C          0.08998   
         C63       1.0000    0.80930   0.89928   0.69666   Biso      1.000     C          0.610545  
         C64       1.0000    0.29830   0.03460   0.52725   Biso      1.000     C          -0.1475   
         C65       1.0000    0.86790   0.66197   0.85631   Biso      1.000     C          0.652625  
         C66       1.0000    0.71780   0.53601   0.68258   Biso      1.000     C          0.655572  
         C67       1.0000    0.73420   0.40987   0.66809   Biso      1.000     C          -0.014124           
         C68       1.0000    0.76080   0.01671   0.69868   Biso      1.000     C          -0.017755           
         C69       1.0000    0.85290   0.23380   0.60266   Biso      1.000     C          -0.138459           
         C70       1.0000    0.83140   0.34708   0.61231   Biso      1.000     C          -0.120847           
         C71       1.0000    0.82120   0.06596   0.64884   Biso      1.000     C          -0.160112           
         C72       1.0000    0.89370   0.59459   0.90954   Biso      1.000     C          -0.028921           
         H1        1.0000    0.78010   0.92070   0.48200   Biso      1.000     H          0.117116  
         H2        1.0000    0.41190   0.30770   0.93620   Biso      1.000     H          0.118005  
         H3        1.0000    0.38110   0.11720   0.91800   Biso      1.000     H          0.116346  
         H4        1.0000    0.38650   0.47570   0.88720   Biso      1.000     H          0.120335  
         H5        1.0000    0.61110   0.86290   0.57050   Biso      1.000     H          0.125464  
         H6        1.0000    0.55190   0.22590   0.78950   Biso      1.000     H          0.107285  
         H7        1.0000    0.59100   0.39770   0.74660   Biso      1.000     H          0.123362  
         H8        1.0000    0.67880   0.52900   0.90400   Biso      1.000     H          0.116812  
         H9        1.0000    0.28010   0.57930   0.01800   Biso      1.000     H          0.117116  
         H10       1.0000    0.91190   0.19230   0.56380   Biso      1.000     H          0.118005  
         H11       1.0000    0.88110   0.38280   0.58200   Biso      1.000     H          0.116346  
         H12       1.0000    0.88650   0.02430   0.61280   Biso      1.000     H          0.120335  
         H13       1.0000    0.11110   0.63710   0.92950   Biso      1.000     H          0.125465  
         H14       1.0000    0.61600   0.04440   0.78530   Biso      1.000     H          0.101707  
         H15       1.0000    0.09100   0.10230   0.75340   Biso      1.000     H          0.123362  
         H16       1.0000    0.05190   0.27410   0.71050   Biso      1.000     H          0.107285  
         H17       1.0000    0.11600   0.45560   0.71470   Biso      1.000     H          0.101707  
         H18       1.0000    0.94810   0.72590   0.28950   Biso      1.000     H          0.107285  
         H19       1.0000    0.88400   0.54440   0.28530   Biso      1.000     H          0.101707  
         H20       1.0000    0.82120   0.02900   0.40400   Biso      1.000     H          0.116811  
         H21       1.0000    0.90900   0.89770   0.24660   Biso      1.000     H          0.123362  
         H22       1.0000    0.21990   0.07930   0.51800   Biso      1.000     H          0.117116  
         H23       1.0000    0.58810   0.69230   0.06380   Biso      1.000     H          0.118005  
         H24       1.0000    0.61890   0.88280   0.08200   Biso      1.000     H          0.116346  
         H25       1.0000    0.61350   0.52430   0.11280   Biso      1.000     H          0.120335  
         H26       1.0000    0.38890   0.13710   0.42950   Biso      1.000     H          0.125464  
         H27       1.0000    0.44810   0.77410   0.21050   Biso      1.000     H          0.107285  
         H28       1.0000    0.38400   0.95560   0.21470   Biso      1.000     H          0.101707  
         H29       1.0000    0.32120   0.47100   0.09600   Biso      1.000     H          0.116812  
         H30       1.0000    0.40900   0.60230   0.25340   Biso      1.000     H          0.123362  
         H31       1.0000    0.08810   0.80770   0.43620   Biso      1.000     H          0.118005  
         H32       1.0000    0.11890   0.61720   0.41800   Biso      1.000     H          0.116346  
         H33       1.0000    0.11350   0.97570   0.38720   Biso      1.000     H          0.120335  
         H34       1.0000    0.88890   0.36290   0.07050   Biso      1.000     H          0.125465  
         H35       1.0000    0.17880   0.97100   0.59600   Biso      1.000     H          0.116812  
         H36       1.0000    0.71990   0.42070   0.98200   Biso      1.000     H          0.117116  
         La1       1.0000    0.53956   0.77049   0.78754   Biso      1.000     La          1.950306  
         La2       1.0000    0.96044   0.27049   0.28754   Biso      1.000     La          1.950306  
         La3       1.0000    0.46044   0.22951   0.21246   Biso      1.000     La          1.950306  
         La4       1.0000    0.03956   0.72951   0.71246   Biso      1.000     La          1.950306  
         O1        1.0000    0.90980   0.07915   0.20180   Biso      1.000     O          -0.598967           
         O2        1.0000    0.51740   0.19586   0.32967   Biso      1.000     O          -0.630124           
         O3        1.0000    0.60820   0.34515   0.14528   Biso      1.000     O          -0.594968           
         O4        1.0000    0.72639   0.35999   0.24997   Biso      1.000     O          -0.701594           
         O5        1.0000    0.26540   0.32001   0.15852   Biso      1.000     O          -0.653614           
         O6        1.0000    0.16520   0.41004   0.32450   Biso      1.000     O          -0.688337           
         O7        1.0000    0.40980   0.42085   0.29820   Biso      1.000     O          -0.598967           
         O8        1.0000    0.01740   0.30414   0.17033   Biso      1.000     O          -0.630124           
         O9        1.0000    0.10820   0.15485   0.35472   Biso      1.000     O          -0.594969           
         O10       1.0000    0.22639   0.14001   0.25003   Biso      1.000     O          -0.701594           
         O11       1.0000    0.23460   0.82001   0.65852   Biso      1.000     O          -0.653614           
         O12       1.0000    0.33480   0.91004   0.82450   Biso      1.000     O          -0.688337           
         O13       1.0000    0.09020   0.92085   0.79820   Biso      1.000     O          -0.598967           
         O14       1.0000    0.48260   0.80414   0.67033   Biso      1.000     O          -0.630124           
         O15       1.0000    0.39180   0.65485   0.85472   Biso      1.000     O          -0.594969           
         O16       1.0000    0.27361   0.64001   0.75003   Biso      1.000     O          -0.701594           
         O17       1.0000    0.73460   0.67999   0.84148   Biso      1.000     O          -0.653614           
         O18       1.0000    0.83480   0.58996   0.67550   Biso      1.000     O          -0.688337           
         O19       1.0000    0.59020   0.57915   0.70180   Biso      1.000     O          -0.598967           
         O20       1.0000    0.98260   0.69586   0.82967   Biso      1.000     O          -0.630124           
         O21       1.0000    0.89180   0.84515   0.64528   Biso      1.000     O          -0.594969           
         O22       1.0000    0.77361   0.85999   0.74997   Biso      1.000     O          -0.701594           
         O23       1.0000    0.66520   0.08996   0.17550   Biso      1.000     O          -0.688337           
         O24       1.0000    0.76540   0.17999   0.34148   Biso      1.000     O          -0.653614 