
##########################################################################
#               Crystallographic Information Format file
#               Produced by PyCifRW module
#
#  This is a CIF file.  CIF has been adopted by the International
#  Union of Crystallography as the standard for data archiving and
#  transmission.
#
#  For information on this file format, follow the CIF links at
#  http://www.iucr.org
##########################################################################

data_image0

_cell_length_a                          11.3887
_cell_length_b                          13.7495
_cell_length_c                          13.7495
_cell_angle_alpha                       80.1238
_cell_angle_beta                        65.5341
_cell_angle_gamma                       65.5342
_symmetry_space_group_name_H-M          'P 1'
_symmetry_int_tables_number             1
loop_
  _symmetry_equiv_pos_as_xyz
         'x, y, z' 
loop_
  _atom_site_label
  _atom_site_occupancy
  _atom_site_fract_x
  _atom_site_fract_y
  _atom_site_fract_z
  _atom_site_thermal_displace_type
  _atom_site_B_iso_or_equiv
  _atom_site_type_symbol
  _atom_site_charge
         C1        1.0000    0.12090   0.05590   0.22470   Biso      1.000     C          -0.564601           
         C2        1.0000    0.90150   0.44410   0.27530   Biso      1.000     C          -0.5668569999999999           
         C3        1.0000    0.75150   0.48290   0.29030   Biso      1.000     C          0.395036  
         C4        1.0000    0.56627   0.54535   0.26051   Biso      1.000     C          0.11823499999999999           
         C5        1.0000    0.02470   0.01710   0.20970   Biso      1.000     C          0.391694  
         C6        1.0000    0.87213   0.95465   0.23949   Biso      1.000     C          0.117158  
         C7        1.0000    0.17680   0.72470   0.94410   Biso      1.000     C          -0.5651930000000001           
         C8        1.0000    0.04180   0.70970   0.98290   Biso      1.000     C          0.39399   
         C9        1.0000    0.82678   0.73949   0.04535   Biso      1.000     C          0.11558099999999999           
         C10       1.0000    0.23440   0.79030   0.51710   Biso      1.000     C          0.39397600000000005           
         C11       1.0000    0.11162   0.76051   0.45465   Biso      1.000     C          0.113603  
         C12       1.0000    0.09850   0.55590   0.72470   Biso      1.000     C          -0.566858           
         C13       1.0000    0.34560   0.77530   0.55590   Biso      1.000     C          -0.564936           
         C14       1.0000    0.43373   0.45465   0.73949   Biso      1.000     C          0.118236  
         C15       1.0000    0.88838   0.23949   0.54535   Biso      1.000     C          0.113603  
         C16       1.0000    0.76560   0.20970   0.48290   Biso      1.000     C          0.39397600000000005           
         C17       1.0000    0.24850   0.51710   0.70970   Biso      1.000     C          0.39503499999999997           
         C18       1.0000    0.17322   0.26051   0.95465   Biso      1.000     C          0.11558099999999999           
         C19       1.0000    0.95820   0.29030   0.01710   Biso      1.000     C          0.39399   
         C20       1.0000    0.65440   0.22470   0.44410   Biso      1.000     C          -0.564936           
         C21       1.0000    0.12787   0.04535   0.76051   Biso      1.000     C          0.117158  
         C22       1.0000    0.97530   0.98290   0.79030   Biso      1.000     C          0.391694  
         C23       1.0000    0.87910   0.94410   0.77530   Biso      1.000     C          -0.564601           
         C24       1.0000    0.82320   0.27530   0.05590   Biso      1.000     C          -0.5651930000000001           
         H1        1.0000    0.81750   0.22670   0.11530   Biso      1.000     H          0.184954  
         H2        1.0000    0.92240   0.27400   0.57360   Biso      1.000     H          0.083427  
         H3        1.0000    0.56440   0.25320   0.50080   Biso      1.000     H          0.184788  
         H4        1.0000    0.65950   0.27330   0.38470   Biso      1.000     H          0.18449200000000002           
         H5        1.0000    0.66800   0.15700   0.42180   Biso      1.000     H          0.161523  
         H6        1.0000    0.81840   0.24680   0.99920   Biso      1.000     H          0.185129  
         H7        1.0000    0.74680   0.34300   0.07820   Biso      1.000     H          0.161576  
         H8        1.0000    0.27000   0.22600   0.92640   Biso      1.000     H          0.082213  
         H9        1.0000    0.81760   0.00080   0.74680   Biso      1.000     H          0.186139  
         H10       1.0000    0.91020   0.42180   0.34300   Biso      1.000     H          0.161867  
         H11       1.0000    0.95580   0.38470   0.22670   Biso      1.000     H          0.185052  
         H12       1.0000    0.93480   0.50080   0.24680   Biso      1.000     H          0.18570699999999998           
         H13       1.0000    0.50400   0.57360   0.22600   Biso      1.000     H          0.081401  
         H14       1.0000    0.17500   0.07820   0.15700   Biso      1.000     H          0.161182  
         H15       1.0000    0.19640   0.07360   0.72600   Biso      1.000     H          0.081496  
         H16       1.0000    0.18240   0.99920   0.25320   Biso      1.000     H          0.186139  
         H17       1.0000    0.80360   0.92640   0.27400   Biso      1.000     H          0.081496  
         H18       1.0000    0.25320   0.65700   0.92180   Biso      1.000     H          0.161576  
         H19       1.0000    0.18250   0.77330   0.88470   Biso      1.000     H          0.184954  
         H20       1.0000    0.18160   0.75320   0.00080   Biso      1.000     H          0.185129  
         H21       1.0000    0.73000   0.77400   0.07360   Biso      1.000     H          0.082213  
         H22       1.0000    0.06720   0.11530   0.27330   Biso      1.000     H          0.18428699999999998           
         H23       1.0000    0.34050   0.72670   0.61530   Biso      1.000     H          0.18449200000000002           
         H24       1.0000    0.43560   0.74680   0.49920   Biso      1.000     H          0.184788  
         H25       1.0000    0.07760   0.72600   0.42640   Biso      1.000     H          0.083427  
         H26       1.0000    0.08980   0.57820   0.65700   Biso      1.000     H          0.161867  
         H27       1.0000    0.04420   0.61530   0.77330   Biso      1.000     H          0.185052  
         H28       1.0000    0.06520   0.49920   0.75320   Biso      1.000     H          0.18570699999999998           
         H29       1.0000    0.49600   0.42640   0.77400   Biso      1.000     H          0.081401  
         H30       1.0000    0.82500   0.92180   0.84300   Biso      1.000     H          0.161182  
         H31       1.0000    0.93280   0.88470   0.72670   Biso      1.000     H          0.18428699999999998           
         H32       1.0000    0.33200   0.84300   0.57820   Biso      1.000     H          0.161523  
         N1        1.0000    0.29539   0.48111   0.78951   Biso      1.000     N          -0.305078           
         N2        1.0000    0.47086   0.47320   0.63668   Biso      1.000     N          -0.119649           
         N3        1.0000    0.22350   0.71049   0.48111   Biso      1.000     N          -0.301867           
         N4        1.0000    0.05594   0.86332   0.47320   Biso      1.000     N          -0.11966900000000001          
         N5        1.0000    0.34997   0.51383   0.61703   Biso      1.000     N          -0.19133599999999998          
         N6        1.0000    0.13620   0.88297   0.51383   Biso      1.000     N          -0.191442           
         N7        1.0000    0.94406   0.13668   0.52680   Biso      1.000     N          -0.11966900000000001          
         N8        1.0000    0.98083   0.98617   0.88297   Biso      1.000     N          -0.190388           
         N9        1.0000    0.96700   0.38297   0.01383   Biso      1.000     N          -0.191119           
         N10       1.0000    0.10754   0.36332   0.97320   Biso      1.000     N          -0.119966           
         N11       1.0000    0.06601   0.01889   0.71049   Biso      1.000     N          -0.30351  
         N12       1.0000    0.08074   0.02680   0.86332   Biso      1.000     N          -0.11801500000000001          
         N13       1.0000    0.91510   0.78951   0.01889   Biso      1.000     N          -0.301375           
         N14       1.0000    0.08490   0.21049   0.98111   Biso      1.000     N          -0.301375           
         N15       1.0000    0.03300   0.61703   0.98617   Biso      1.000     N          -0.191119           
         N16       1.0000    0.77650   0.28951   0.51889   Biso      1.000     N          -0.301867           
         N17       1.0000    0.93399   0.98111   0.28951   Biso      1.000     N          -0.30351  
         N18       1.0000    0.01917   0.01383   0.11703   Biso      1.000     N          -0.190387           
         N19       1.0000    0.91926   0.97320   0.13668   Biso      1.000     N          -0.11801500000000001          
         N20       1.0000    0.70461   0.51889   0.21049   Biso      1.000     N          -0.305078           
         N21       1.0000    0.65003   0.48617   0.38297   Biso      1.000     N          -0.19134400000000001          
         N22       1.0000    0.52914   0.52680   0.36332   Biso      1.000     N          -0.11964000000000001          
         N23       1.0000    0.86380   0.11703   0.48617   Biso      1.000     N          -0.191442           
         N24       1.0000    0.89246   0.63668   0.02680   Biso      1.000     N          -0.119966           
         Zn1       1.0000    0.11208   0.02706   0.55080   Biso      1.000     Zn          0.055804  
         Zn2       1.0000    0.18994   0.47294   0.94920   Biso      1.000     Zn          0.054488999999999996          
         Zn3       1.0000    0.13914   0.05080   0.97294   Biso      1.000     Zn          0.054283000000000005          
         Zn4       1.0000    0.66288   0.44920   0.52706   Biso      1.000     Zn          0.055916999999999994          
         Zn5       1.0000    0.88792   0.97294   0.44920   Biso      1.000     Zn          0.055804  
         Zn6       1.0000    0.81006   0.52706   0.05080   Biso      1.000     Zn          0.05449   
         Zn7       1.0000    0.86086   0.94920   0.02706   Biso      1.000     Zn          0.054283000000000005          
         Zn8       1.0000    0.33712   0.55080   0.47294   Biso      1.000     Zn          0.055915999999999993 