
##########################################################################
#               Crystallographic Information Format file
#               Produced by PyCifRW module
#
#  This is a CIF file.  CIF has been adopted by the International
#  Union of Crystallography as the standard for data archiving and
#  transmission.
#
#  For information on this file format, follow the CIF links at
#  http://www.iucr.org
##########################################################################

data_image0

_cell_length_a                          7.6216
_cell_length_b                          9.833
_cell_length_c                          14.762
_cell_angle_alpha                       90
_cell_angle_beta                        98.191
_cell_angle_gamma                       90
_symmetry_space_group_name_H-M          'P 1'
_symmetry_int_tables_number             1
loop_
  _symmetry_equiv_pos_as_xyz
         'x, y, z' 
loop_
  _atom_site_label
  _atom_site_occupancy
  _atom_site_fract_x
  _atom_site_fract_y
  _atom_site_fract_z
  _atom_site_thermal_displace_type
  _atom_site_B_iso_or_equiv
  _atom_site_type_symbol
  _atom_site_charge
         C1        1.0000    0.08770   0.22690   0.99930   Biso      1.000     C          0.723256  
         C2        1.0000    0.58770   0.27310   0.49930   Biso      1.000     C          0.723256  
         C3        1.0000    0.83020   0.88640   0.51170   Biso      1.000     C          0.077962  
         C4        1.0000    0.77960   0.94150   0.42590   Biso      1.000     C          -0.085952           
         C5        1.0000    0.70300   0.07150   0.42060   Biso      1.000     C          -0.072252           
         C6        1.0000    0.67290   0.13560   0.50070   Biso      1.000     C          -0.07751799999999999          
         C7        1.0000    0.72460   0.06910   0.58420   Biso      1.000     C          0.061112  
         C8        1.0000    0.45720   0.96920   0.03900   Biso      1.000     C          0.515893  
         C9        1.0000    0.69320   0.36240   0.15760   Biso      1.000     C          0.684633  
         C10       1.0000    0.91230   0.77310   0.00070   Biso      1.000     C          0.723256  
         C11       1.0000    0.66980   0.38640   0.98830   Biso      1.000     C          0.077962  
         C12       1.0000    0.72040   0.44150   0.07410   Biso      1.000     C          -0.085952           
         C13       1.0000    0.79700   0.57150   0.07940   Biso      1.000     C          -0.072252           
         C14       1.0000    0.82710   0.63560   0.99930   Biso      1.000     C          -0.077517           
         C15       1.0000    0.77540   0.56910   0.91580   Biso      1.000     C          0.061112  
         C16       1.0000    0.22460   0.43090   0.08420   Biso      1.000     C          0.061112  
         C17       1.0000    0.17290   0.36440   0.00070   Biso      1.000     C          -0.077517           
         C18       1.0000    0.20300   0.42850   0.92060   Biso      1.000     C          -0.072252           
         C19       1.0000    0.27960   0.55850   0.92590   Biso      1.000     C          -0.085954           
         C20       1.0000    0.33020   0.61360   0.01170   Biso      1.000     C          0.077964  
         C21       1.0000    0.30680   0.63760   0.84240   Biso      1.000     C          0.684633  
         C22       1.0000    0.54280   0.03080   0.96100   Biso      1.000     C          0.515893  
         C23       1.0000    0.27540   0.93090   0.41580   Biso      1.000     C          0.061112  
         C24       1.0000    0.32710   0.86440   0.49930   Biso      1.000     C          -0.077517           
         C25       1.0000    0.29700   0.92850   0.57940   Biso      1.000     C          -0.072252           
         C26       1.0000    0.22040   0.05850   0.57410   Biso      1.000     C          -0.085954           
         C27       1.0000    0.16980   0.11360   0.48830   Biso      1.000     C          0.077964  
         C28       1.0000    0.41230   0.72690   0.50070   Biso      1.000     C          0.723256  
         C29       1.0000    0.19320   0.13760   0.65760   Biso      1.000     C          0.684633  
         C30       1.0000    0.95720   0.53080   0.53900   Biso      1.000     C          0.515893  
         C31       1.0000    0.80680   0.86240   0.34240   Biso      1.000     C          0.684633  
         C32       1.0000    0.04280   0.46920   0.46100   Biso      1.000     C          0.515893  
         Dy1       1.0000    0.64943   0.54507   0.36089   Biso      1.000     Dy          2.118992  
         Dy2       1.0000    0.85057   0.04507   0.13911   Biso      1.000     Dy          2.118992  
         Dy3       1.0000    0.35057   0.45493   0.63911   Biso      1.000     Dy          2.118992  
         Dy4       1.0000    0.14943   0.95493   0.86089   Biso      1.000     Dy          2.118992  
         H1        1.0000    0.11660   0.19890   0.48450   Biso      1.000     H          0.101671  
         H2        1.0000    0.79940   0.61030   0.86220   Biso      1.000     H          0.10373099999999999           
         H3        1.0000    0.82710   0.61410   0.13570   Biso      1.000     H          0.132296  
         H4        1.0000    0.61660   0.30110   0.98450   Biso      1.000     H          0.101672  
         H5        1.0000    0.70060   0.11030   0.63780   Biso      1.000     H          0.10372999999999999           
         H6        1.0000    0.32710   0.88590   0.63570   Biso      1.000     H          0.132296  
         H7        1.0000    0.88340   0.80110   0.51550   Biso      1.000     H          0.101671  
         H8        1.0000    0.20060   0.38970   0.13780   Biso      1.000     H          0.10373099999999999           
         H9        1.0000    0.17290   0.38590   0.86430   Biso      1.000     H          0.132296  
         H10       1.0000    0.38340   0.69890   0.01550   Biso      1.000     H          0.101671  
         H11       1.0000    0.67290   0.11410   0.36430   Biso      1.000     H          0.132296  
         H12       1.0000    0.29940   0.88970   0.36220   Biso      1.000     H          0.10372999999999999           
         N1        1.0000    0.69310   0.44890   0.91040   Biso      1.000     N          -0.28574099999999997          
         N2        1.0000    0.80690   0.94890   0.58960   Biso      1.000     N          -0.28574099999999997          
         N3        1.0000    0.30690   0.55110   0.08960   Biso      1.000     N          -0.28574099999999997          
         N4        1.0000    0.19310   0.05110   0.41040   Biso      1.000     N          -0.28574099999999997          
         O1        1.0000    0.09340   0.15620   0.92930   Biso      1.000     O          -0.692574           
         O2        1.0000    0.30420   0.57810   0.76810   Biso      1.000     O          -0.6903189999999999           
         O3        1.0000    0.33320   0.76470   0.85270   Biso      1.000     O          -0.695051           
         O4        1.0000    0.44690   0.04710   0.88500   Biso      1.000     O          -0.591729           
         O5        1.0000    0.19580   0.07810   0.73190   Biso      1.000     O          -0.6903189999999999           
         O6        1.0000    0.48050   0.69170   0.43220   Biso      1.000     O          -0.715159           
         O7        1.0000    0.40660   0.65620   0.57070   Biso      1.000     O          -0.692574           
         O8        1.0000    0.01950   0.19170   0.06780   Biso      1.000     O          -0.715159           
         O9        1.0000    0.16680   0.26470   0.64730   Biso      1.000     O          -0.695051           
         O10       1.0000    0.70430   0.06280   0.97960   Biso      1.000     O          -0.613252           
         O11       1.0000    0.20430   0.43720   0.47960   Biso      1.000     O          -0.613252           
         O12       1.0000    0.69580   0.42190   0.23190   Biso      1.000     O          -0.6903189999999999           
         O13       1.0000    0.83320   0.73530   0.35270   Biso      1.000     O          -0.695051           
         O14       1.0000    0.80420   0.92190   0.26810   Biso      1.000     O          -0.6903189999999999           
         O15       1.0000    0.59340   0.34380   0.42930   Biso      1.000     O          -0.692574           
         O16       1.0000    0.51950   0.30830   0.56780   Biso      1.000     O          -0.715159           
         O17       1.0000    0.29570   0.93720   0.02040   Biso      1.000     O          -0.613252           
         O18       1.0000    0.55310   0.95290   0.11500   Biso      1.000     O          -0.591729           
         O19       1.0000    0.66680   0.23530   0.14730   Biso      1.000     O          -0.695051           
         O20       1.0000    0.90660   0.84380   0.07070   Biso      1.000     O          -0.692574           
         O21       1.0000    0.98050   0.80830   0.93220   Biso      1.000     O          -0.715159           
         O22       1.0000    0.05310   0.54710   0.61500   Biso      1.000     O          -0.591729           
         O23       1.0000    0.94690   0.45290   0.38500   Biso      1.000     O          -0.591729           
         O24       1.0000    0.79570   0.56280   0.52040   Biso      1.000     O          -0.613252 