
##########################################################################
#               Crystallographic Information Format file
#               Produced by PyCifRW module
#
#  This is a CIF file.  CIF has been adopted by the International
#  Union of Crystallography as the standard for data archiving and
#  transmission.
#
#  For information on this file format, follow the CIF links at
#  http://www.iucr.org
##########################################################################

data_image0

_cell_length_a                          7.6004
_cell_length_b                          9.8077
_cell_length_c                          14.7145
_cell_angle_alpha                       90
_cell_angle_beta                        98.16
_cell_angle_gamma                       90
_symmetry_space_group_name_H-M          'P 1'
_symmetry_int_tables_number             1
loop_
  _symmetry_equiv_pos_as_xyz
         'x, y, z' 
loop_
  _atom_site_label
  _atom_site_occupancy
  _atom_site_fract_x
  _atom_site_fract_y
  _atom_site_fract_z
  _atom_site_thermal_displace_type
  _atom_site_B_iso_or_equiv
  _atom_site_type_symbol
  _atom_site_charge
         C1        1.0000    0.19310   0.36280   0.15780   Biso      1.000     C          0.6880729999999999  
         C2        1.0000    0.66970   0.11320   0.48780   Biso      1.000     C          0.08828   
         C3        1.0000    0.72160   0.05750   0.57470   Biso      1.000     C          -0.09700299999999999          
         C4        1.0000    0.79670   0.92840   0.58020   Biso      1.000     C          -0.062046000000000004         
         C5        1.0000    0.82710   0.86500   0.49930   Biso      1.000     C          -0.07372999999999999          
         C6        1.0000    0.77390   0.93060   0.41550   Biso      1.000     C          0.06329   
         C7        1.0000    0.69310   0.13720   0.65780   Biso      1.000     C          0.6880729999999999  
         C8        1.0000    0.91060   0.72690   0.50050   Biso      1.000     C          0.7195600000000001  
         C9        1.0000    0.95630   0.96820   0.03960   Biso      1.000     C          0.516927  
         C10       1.0000    0.54370   0.46820   0.46040   Biso      1.000     C          0.516927  
         C11       1.0000    0.16970   0.38680   0.98780   Biso      1.000     C          0.08828   
         C12       1.0000    0.29670   0.57160   0.08020   Biso      1.000     C          -0.062046000000000004         
         C13       1.0000    0.32710   0.63500   0.99930   Biso      1.000     C          -0.07372999999999999          
         C14       1.0000    0.27390   0.56940   0.91550   Biso      1.000     C          0.063291  
         C15       1.0000    0.22610   0.06940   0.58450   Biso      1.000     C          0.06329   
         C16       1.0000    0.41060   0.77310   0.00050   Biso      1.000     C          0.7195600000000001  
         C17       1.0000    0.45630   0.53180   0.53960   Biso      1.000     C          0.516926  
         C18       1.0000    0.33030   0.88680   0.51220   Biso      1.000     C          0.088281  
         C19       1.0000    0.27840   0.94250   0.42530   Biso      1.000     C          -0.09700299999999999          
         C20       1.0000    0.22160   0.44250   0.07470   Biso      1.000     C          -0.09700299999999999          
         C21       1.0000    0.58940   0.22690   0.99950   Biso      1.000     C          0.7195600000000001  
         C22       1.0000    0.80690   0.63720   0.84220   Biso      1.000     C          0.6880729999999999  
         C23       1.0000    0.72610   0.43060   0.08450   Biso      1.000     C          0.06329   
         C24       1.0000    0.04370   0.03180   0.96040   Biso      1.000     C          0.516926  
         C25       1.0000    0.08940   0.27310   0.49950   Biso      1.000     C          0.7195600000000001  
         C26       1.0000    0.30690   0.86280   0.34220   Biso      1.000     C          0.6880729999999999  
         C27       1.0000    0.20330   0.07160   0.41980   Biso      1.000     C          -0.062046000000000004         
         C28       1.0000    0.17290   0.13500   0.50070   Biso      1.000     C          -0.07372999999999999          
         C29       1.0000    0.83030   0.61320   0.01220   Biso      1.000     C          0.08828   
         C30       1.0000    0.77840   0.55750   0.92530   Biso      1.000     C          -0.09700299999999999          
         C31       1.0000    0.70330   0.42840   0.91980   Biso      1.000     C          -0.062046000000000004         
         C32       1.0000    0.67290   0.36500   0.00070   Biso      1.000     C          -0.07372999999999999          
         H1        1.0000    0.17200   0.10200   0.35600   Biso      1.000     H          0.12901500000000002           
         H2        1.0000    0.38400   0.79800   0.52300   Biso      1.000     H          0.10116900000000001           
         H3        1.0000    0.29300   0.61200   0.86100   Biso      1.000     H          0.105121  
         H4        1.0000    0.32800   0.60200   0.14400   Biso      1.000     H          0.12901500000000002           
         H5        1.0000    0.79300   0.88800   0.36100   Biso      1.000     H          0.105121  
         H6        1.0000    0.82800   0.89800   0.64400   Biso      1.000     H          0.12901500000000002           
         H7        1.0000    0.61600   0.20200   0.47700   Biso      1.000     H          0.101168  
         H8        1.0000    0.70700   0.38800   0.13900   Biso      1.000     H          0.105121  
         H9        1.0000    0.67200   0.39800   0.85600   Biso      1.000     H          0.12901500000000002           
         H10       1.0000    0.88400   0.70200   0.02300   Biso      1.000     H          0.101168  
         H11       1.0000    0.20700   0.11200   0.63900   Biso      1.000     H          0.105121  
         H12       1.0000    0.11600   0.29800   0.97700   Biso      1.000     H          0.10116900000000001           
         Ho1       1.0000    0.84990   0.45476   0.63897   Biso      1.000     Ho          2.1282669999999997  
         Ho2       1.0000    0.34990   0.04524   0.13897   Biso      1.000     Ho          2.1282669999999997  
         Ho3       1.0000    0.15010   0.54524   0.36103   Biso      1.000     Ho          2.1282669999999997  
         Ho4       1.0000    0.65010   0.95476   0.86103   Biso      1.000     Ho          2.1282669999999997  
         N1        1.0000    0.80710   0.55220   0.09040   Biso      1.000     N          -0.290103           
         N2        1.0000    0.69290   0.05220   0.40960   Biso      1.000     N          -0.290103           
         N3        1.0000    0.19290   0.44780   0.90960   Biso      1.000     N          -0.290103           
         N4        1.0000    0.30710   0.94780   0.59040   Biso      1.000     N          -0.290103           
         O1        1.0000    0.16700   0.23470   0.14739   Biso      1.000     O          -0.696371           
         O2        1.0000    0.40640   0.84530   0.07079   Biso      1.000     O          -0.6963739999999999           
         O3        1.0000    0.48140   0.80790   0.93197   Biso      1.000     O          -0.71822  
         O4        1.0000    0.29550   0.56360   0.52043   Biso      1.000     O          -0.6156739999999999           
         O5        1.0000    0.09360   0.34530   0.42921   Biso      1.000     O          -0.6963739999999999           
         O6        1.0000    0.30440   0.92260   0.26731   Biso      1.000     O          -0.6955439999999999           
         O7        1.0000    0.33300   0.73470   0.35261   Biso      1.000     O          -0.696371           
         O8        1.0000    0.19560   0.42260   0.23269   Biso      1.000     O          -0.6955439999999999           
         O9        1.0000    0.01860   0.30790   0.56803   Biso      1.000     O          -0.71822  
         O10       1.0000    0.55270   0.54620   0.61510   Biso      1.000     O          -0.594637           
         O11       1.0000    0.05270   0.95380   0.11510   Biso      1.000     O          -0.594637           
         O12       1.0000    0.90640   0.65470   0.57079   Biso      1.000     O          -0.6963739999999999           
         O13       1.0000    0.98140   0.69210   0.43197   Biso      1.000     O          -0.71822  
         O14       1.0000    0.20450   0.06360   0.97957   Biso      1.000     O          -0.6156729999999999           
         O15       1.0000    0.66700   0.26530   0.64739   Biso      1.000     O          -0.696371           
         O16       1.0000    0.69560   0.07740   0.73269   Biso      1.000     O          -0.6955439999999999           
         O17       1.0000    0.44730   0.45380   0.38490   Biso      1.000     O          -0.594637           
         O18       1.0000    0.70450   0.43640   0.47957   Biso      1.000     O          -0.6156729999999999           
         O19       1.0000    0.51860   0.19210   0.06803   Biso      1.000     O          -0.71822  
         O20       1.0000    0.59360   0.15470   0.92921   Biso      1.000     O          -0.6963739999999999           
         O21       1.0000    0.83300   0.76530   0.85261   Biso      1.000     O          -0.696371           
         O22       1.0000    0.80440   0.57740   0.76731   Biso      1.000     O          -0.6955439999999999           
         O23       1.0000    0.79550   0.93640   0.02043   Biso      1.000     O          -0.6156729999999999           
         O24       1.0000    0.94730   0.04620   0.88490   Biso      1.000     O          -0.594637 