
##########################################################################
#               Crystallographic Information Format file
#               Produced by PyCifRW module
#
#  This is a CIF file.  CIF has been adopted by the International
#  Union of Crystallography as the standard for data archiving and
#  transmission.
#
#  For information on this file format, follow the CIF links at
#  http://www.iucr.org
##########################################################################

data_image0

_cell_length_a                          7.2452
_cell_length_b                          13.9706
_cell_length_c                          16.3779
_cell_angle_alpha                       73.531
_cell_angle_beta                        83.678
_cell_angle_gamma                       89.998
_symmetry_space_group_name_H-M          'P 1'
_symmetry_int_tables_number             1
loop_
  _symmetry_equiv_pos_as_xyz
         'x, y, z' 
loop_
  _atom_site_label
  _atom_site_occupancy
  _atom_site_fract_x
  _atom_site_fract_y
  _atom_site_fract_z
  _atom_site_thermal_displace_type
  _atom_site_B_iso_or_equiv
  _atom_site_type_symbol
  _atom_site_charge
         C1        1.0000    0.01110   0.37920   0.47140   Biso      1.000     C          -0.015330000000000002         
         C2        1.0000    0.82730   0.43320   0.26860   Biso      1.000     C          -0.194603           
         C3        1.0000    0.83300   0.45540   0.17960   Biso      1.000     C          0.08238999999999999           
         C4        1.0000    0.99640   0.41010   0.39620   Biso      1.000     C          -0.097023           
         C5        1.0000    0.00360   0.58990   0.60380   Biso      1.000     C          -0.097169           
         C6        1.0000    0.95500   0.93950   0.18760   Biso      1.000     C          0.084346  
         C7        1.0000    0.94480   0.87710   0.27080   Biso      1.000     C          -0.184878           
         C8        1.0000    0.96310   0.77430   0.28360   Biso      1.000     C          0.171184  
         C9        1.0000    0.98280   0.73780   0.21290   Biso      1.000     C          -0.184863           
         C10       1.0000    0.98860   0.80430   0.13150   Biso      1.000     C          0.085857  
         C11       1.0000    0.99210   0.43770   0.30440   Biso      1.000     C          0.174401  
         C12       1.0000    0.96660   0.71010   0.36930   Biso      1.000     C          -0.08104  
         C13       1.0000    0.70470   0.86100   0.96660   Biso      1.000     C          0.053194000000000005          
         C14       1.0000    0.30610   0.66320   0.97340   Biso      1.000     C          0.039666  
         C15       1.0000    0.69590   0.65730   0.98170   Biso      1.000     C          0.041710000000000004          
         C16       1.0000    0.31580   0.86520   0.96240   Biso      1.000     C          0.05330599999999999           
         C17       1.0000    0.84930   0.51540   0.83770   Biso      1.000     C          0.084459  
         C18       1.0000    0.84360   0.53420   0.75020   Biso      1.000     C          -0.192826           
         C19       1.0000    0.00790   0.56230   0.69560   Biso      1.000     C          0.17441700000000002           
         C20       1.0000    0.17270   0.56680   0.73140   Biso      1.000     C          -0.194602           
         C21       1.0000    0.16700   0.54460   0.82040   Biso      1.000     C          0.082389  
         C22       1.0000    0.97610   0.66390   0.44300   Biso      1.000     C          -0.033692           
         C23       1.0000    0.15640   0.46580   0.24980   Biso      1.000     C          -0.19283  
         C24       1.0000    0.98890   0.62080   0.52860   Biso      1.000     C          -0.01518  
         C25       1.0000    0.15070   0.48460   0.16230   Biso      1.000     C          0.084462  
         C26       1.0000    0.04500   0.06050   0.81240   Biso      1.000     C          0.084346  
         C27       1.0000    0.05520   0.12290   0.72920   Biso      1.000     C          -0.184878           
         C28       1.0000    0.03690   0.22570   0.71640   Biso      1.000     C          0.171183  
         C29       1.0000    0.01720   0.26220   0.78710   Biso      1.000     C          -0.184863           
         C30       1.0000    0.03340   0.28990   0.63070   Biso      1.000     C          -0.081045           
         C31       1.0000    0.02390   0.33610   0.55700   Biso      1.000     C          -0.033664           
         C32       1.0000    0.01140   0.19570   0.86850   Biso      1.000     C          0.085857  
         C33       1.0000    0.69390   0.33680   0.02660   Biso      1.000     C          0.039666  
         C34       1.0000    0.68420   0.13480   0.03760   Biso      1.000     C          0.05330599999999999           
         C35       1.0000    0.30410   0.34270   0.01830   Biso      1.000     C          0.041710000000000004          
         C36       1.0000    0.29530   0.13900   0.03340   Biso      1.000     C          0.053194000000000005          
         Fe1       1.0000    0.00000   0.00000   0.00000   Biso      1.000     Fe          0.541308  
         Fe2       1.0000    0.00000   0.50000   0.00000   Biso      1.000     Fe          0.541259  
         H1        1.0000    0.27760   0.54690   0.84380   Biso      1.000     H          0.108325  
         H2        1.0000    0.28480   0.58450   0.69650   Biso      1.000     H          0.142071  
         H3        1.0000    0.73220   0.52820   0.72840   Biso      1.000     H          0.144038  
         H4        1.0000    0.73820   0.49890   0.87350   Biso      1.000     H          0.105327  
         H5        1.0000    0.26780   0.47180   0.27160   Biso      1.000     H          0.144037  
         H6        1.0000    0.05440   0.99210   0.82060   Biso      1.000     H          0.11046700000000001           
         H7        1.0000    0.07380   0.09680   0.68270   Biso      1.000     H          0.139061  
         H8        1.0000    0.71520   0.41550   0.30350   Biso      1.000     H          0.14207   
         H9        1.0000    0.72240   0.45310   0.15620   Biso      1.000     H          0.108325  
         H10       1.0000    0.00810   0.33040   0.78010   Biso      1.000     H          0.126923  
         H11       1.0000    0.99190   0.66960   0.21990   Biso      1.000     H          0.126924  
         H12       1.0000    0.94560   0.00790   0.17940   Biso      1.000     H          0.11046700000000001           
         H13       1.0000    0.00030   0.77940   0.08420   Biso      1.000     H          0.111801  
         H14       1.0000    0.92620   0.90320   0.31730   Biso      1.000     H          0.139061  
         H15       1.0000    0.26180   0.50110   0.12650   Biso      1.000     H          0.105327  
         H16       1.0000    0.99970   0.22060   0.91580   Biso      1.000     H          0.111801  
         N1        1.0000    0.20100   0.92060   0.96830   Biso      1.000     N          -0.297149           
         N2        1.0000    0.00750   0.51960   0.87410   Biso      1.000     N          -0.12815  
         N3        1.0000    0.79900   0.07940   0.03170   Biso      1.000     N          -0.297149           
         N4        1.0000    0.99250   0.48040   0.12590   Biso      1.000     N          -0.12815  
         N5        1.0000    0.19340   0.40300   0.00810   Biso      1.000     N          -0.302528           
         N6        1.0000    0.18840   0.60480   0.98010   Biso      1.000     N          -0.305307           
         N7        1.0000    0.81160   0.39520   0.01990   Biso      1.000     N          -0.305307           
         N8        1.0000    0.18130   0.08370   0.02810   Biso      1.000     N          -0.299039           
         N9        1.0000    0.81870   0.91630   0.97190   Biso      1.000     N          -0.299039           
         N10       1.0000    0.02230   0.09430   0.88160   Biso      1.000     N          -0.123923           
         N11       1.0000    0.97770   0.90570   0.11840   Biso      1.000     N          -0.123923           
         N12       1.0000    0.80660   0.59700   0.99190   Biso      1.000     N          -0.302528           
         Pt1       1.0000    0.49309   0.23753   0.03257   Biso      1.000     Pt          0.040522  
         Pt2       1.0000    0.50691   0.76247   0.96743   Biso      1.000     Pt          0.040522 