
##########################################################################
#               Crystallographic Information Format file
#               Produced by PyCifRW module
#
#  This is a CIF file.  CIF has been adopted by the International
#  Union of Crystallography as the standard for data archiving and
#  transmission.
#
#  For information on this file format, follow the CIF links at
#  http://www.iucr.org
##########################################################################

data_image0

_cell_length_a                          7.2443
_cell_length_b                          13.8127
_cell_length_c                          15.4746
_cell_angle_alpha                       80.352
_cell_angle_beta                        87.669
_cell_angle_gamma                       89.842
_symmetry_space_group_name_H-M          'P 1'
_symmetry_int_tables_number             1
loop_
  _symmetry_equiv_pos_as_xyz
         'x, y, z' 
loop_
  _atom_site_label
  _atom_site_occupancy
  _atom_site_fract_x
  _atom_site_fract_y
  _atom_site_fract_z
  _atom_site_thermal_displace_type
  _atom_site_B_iso_or_equiv
  _atom_site_type_symbol
  _atom_site_charge
         C1        1.0000    0.19650   0.36280   0.45700   Biso      1.000     C          0.051822  
         C2        1.0000    0.33590   0.98510   0.67810   Biso      1.000     C          0.080997  
         C3        1.0000    0.49710   0.91510   0.90660   Biso      1.000     C          -0.090934           
         C4        1.0000    0.19660   0.15800   0.47990   Biso      1.000     C          0.042398000000000005          
         C5        1.0000    0.80550   0.15850   0.47720   Biso      1.000     C          0.042628  
         C6        1.0000    0.19450   0.84150   0.52280   Biso      1.000     C          0.042628  
         C7        1.0000    0.48530   0.44620   0.69320   Biso      1.000     C          0.085221  
         C8        1.0000    0.48370   0.38780   0.77300   Biso      1.000     C          -0.185362           
         C9        1.0000    0.48790   0.28510   0.77860   Biso      1.000     C          0.164461  
         C10       1.0000    0.49250   0.24810   0.69980   Biso      1.000     C          -0.183166           
         C11       1.0000    0.49480   0.31100   0.62120   Biso      1.000     C          0.09198300000000001           
         C12       1.0000    0.48900   0.22170   0.86250   Biso      1.000     C          -0.078062           
         C13       1.0000    0.49250   0.17390   0.93400   Biso      1.000     C          -0.030492000000000002         
         C14       1.0000    0.49850   0.12370   0.01850   Biso      1.000     C          -0.017873           
         C15       1.0000    0.19180   0.63680   0.54510   Biso      1.000     C          0.058164  
         C16       1.0000    0.34480   0.01450   0.32620   Biso      1.000     C          0.080981  
         C17       1.0000    0.34130   0.03500   0.23570   Biso      1.000     C          -0.190496           
         C18       1.0000    0.50650   0.05030   0.18640   Biso      1.000     C          0.17641700000000002           
         C19       1.0000    0.67020   0.03680   0.23000   Biso      1.000     C          -0.192768           
         C20       1.0000    0.66410   0.01490   0.32190   Biso      1.000     C          0.080998  
         C21       1.0000    0.50290   0.08490   0.09340   Biso      1.000     C          -0.090794           
         C22       1.0000    0.80340   0.84200   0.52010   Biso      1.000     C          0.042398000000000005          
         C23       1.0000    0.32980   0.96320   0.77000   Biso      1.000     C          -0.19277  
         C24       1.0000    0.49350   0.94970   0.81360   Biso      1.000     C          0.17643399999999998           
         C25       1.0000    0.80350   0.63720   0.54300   Biso      1.000     C          0.051822  
         C26       1.0000    0.65870   0.96500   0.76430   Biso      1.000     C          -0.190494           
         C27       1.0000    0.51470   0.55380   0.30680   Biso      1.000     C          0.085222  
         C28       1.0000    0.51630   0.61220   0.22700   Biso      1.000     C          -0.185363           
         C29       1.0000    0.51210   0.71490   0.22140   Biso      1.000     C          0.164446  
         C30       1.0000    0.65520   0.98550   0.67380   Biso      1.000     C          0.08098   
         C31       1.0000    0.80820   0.36320   0.45490   Biso      1.000     C          0.058164  
         C32       1.0000    0.50150   0.87630   0.98150   Biso      1.000     C          -0.017712000000000002         
         C33       1.0000    0.50750   0.82610   0.06600   Biso      1.000     C          -0.030641           
         C34       1.0000    0.50750   0.75190   0.30020   Biso      1.000     C          -0.183167           
         C35       1.0000    0.50520   0.68900   0.37880   Biso      1.000     C          0.091984  
         C36       1.0000    0.51100   0.77830   0.13750   Biso      1.000     C          -0.077936           
         Fe1       1.0000    0.50000   0.00000   0.50000   Biso      1.000     Fe          0.534615  
         Fe2       1.0000    0.50000   0.50000   0.50000   Biso      1.000     Fe          0.546829  
         H1        1.0000    0.76690   0.99440   0.64160   Biso      1.000     H          0.10773800000000001           
         H2        1.0000    0.77450   0.00570   0.35070   Biso      1.000     H          0.109021  
         H3        1.0000    0.78300   0.04210   0.19860   Biso      1.000     H          0.141003  
         H4        1.0000    0.22930   0.03850   0.20800   Biso      1.000     H          0.140603  
         H5        1.0000    0.23310   0.00560   0.35840   Biso      1.000     H          0.10773800000000001           
         H6        1.0000    0.21700   0.95790   0.80140   Biso      1.000     H          0.141003  
         H7        1.0000    0.51820   0.48610   0.30910   Biso      1.000     H          0.10828199999999999           
         H8        1.0000    0.52020   0.58440   0.17620   Biso      1.000     H          0.138099  
         H9        1.0000    0.22550   0.99430   0.64930   Biso      1.000     H          0.109021  
         H10       1.0000    0.49850   0.28480   0.56950   Biso      1.000     H          0.109983  
         H11       1.0000    0.50600   0.81940   0.29930   Biso      1.000     H          0.12448   
         H12       1.0000    0.77070   0.96150   0.79200   Biso      1.000     H          0.140603  
         H13       1.0000    0.47980   0.41560   0.82380   Biso      1.000     H          0.138099  
         H14       1.0000    0.50150   0.71520   0.43050   Biso      1.000     H          0.109983  
         H15       1.0000    0.48180   0.51390   0.69090   Biso      1.000     H          0.10828199999999999           
         H16       1.0000    0.49400   0.18060   0.70070   Biso      1.000     H          0.12448   
         N1        1.0000    0.50820   0.58950   0.38400   Biso      1.000     N          -0.126383           
         N2        1.0000    0.69370   0.41890   0.46100   Biso      1.000     N          -0.298039           
         N3        1.0000    0.50330   0.00680   0.37000   Biso      1.000     N          -0.13062  
         N4        1.0000    0.31100   0.09990   0.48990   Biso      1.000     N          -0.304197           
         N5        1.0000    0.68750   0.58150   0.53750   Biso      1.000     N          -0.29837800000000003          
         N6        1.0000    0.49670   0.99320   0.63000   Biso      1.000     N          -0.13062100000000001          
         N7        1.0000    0.30630   0.58110   0.53900   Biso      1.000     N          -0.298039           
         N8        1.0000    0.31250   0.41850   0.46250   Biso      1.000     N          -0.29837800000000003          
         N9        1.0000    0.68900   0.90010   0.51010   Biso      1.000     N          -0.304197           
         N10       1.0000    0.49180   0.41050   0.61600   Biso      1.000     N          -0.126384           
         N11       1.0000    0.68990   0.10050   0.48610   Biso      1.000     N          -0.304479           
         N12       1.0000    0.31010   0.89950   0.51390   Biso      1.000     N          -0.304479           
         Pt1       1.0000    0.00288   0.26061   0.46287   Biso      1.000     Pt          0.036106  
         Pt2       1.0000    0.99712   0.73939   0.53713   Biso      1.000     Pt          0.036106 