
##########################################################################
#               Crystallographic Information Format file
#               Produced by PyCifRW module
#
#  This is a CIF file.  CIF has been adopted by the International
#  Union of Crystallography as the standard for data archiving and
#  transmission.
#
#  For information on this file format, follow the CIF links at
#  http://www.iucr.org
##########################################################################

data_image0

_cell_length_a                          14.4669
_cell_length_b                          17.046
_cell_length_c                          18.02
_cell_angle_alpha                       90
_cell_angle_beta                        90
_cell_angle_gamma                       90
_symmetry_space_group_name_H-M          'P 1'
_symmetry_int_tables_number             1
loop_
  _symmetry_equiv_pos_as_xyz
         'x, y, z' 
loop_
  _atom_site_label
  _atom_site_occupancy
  _atom_site_fract_x
  _atom_site_fract_y
  _atom_site_fract_z
  _atom_site_thermal_displace_type
  _atom_site_B_iso_or_equiv
  _atom_site_type_symbol
  _atom_site_charge
         C1        1.0000    0.43500   0.13500   0.72480   Biso      1.000     C          -0.101894           
         C2        1.0000    0.60570   0.29280   0.23240   Biso      1.000     C          -0.096862           
         C3        1.0000    0.53840   0.26180   0.18800   Biso      1.000     C          -0.018054           
         C4        1.0000    0.45440   0.20030   0.68430   Biso      1.000     C          -0.101547           
         C5        1.0000    0.45440   0.29970   0.18430   Biso      1.000     C          -0.101559           
         C6        1.0000    0.43500   0.36500   0.22480   Biso      1.000     C          -0.101883           
         C7        1.0000    0.55310   0.18890   0.14500   Biso      1.000     C          0.627173  
         C8        1.0000    0.18130   0.55630   0.45620   Biso      1.000     C          0.553755  
         C9        1.0000    0.08680   0.52670   0.47730   Biso      1.000     C          -0.013976           
         C10       1.0000    0.53770   0.56410   0.96720   Biso      1.000     C          -0.109033           
         C11       1.0000    0.54740   0.46200   0.05490   Biso      1.000     C          -0.098853           
         C12       1.0000    0.58680   0.52670   0.02270   Biso      1.000     C          -0.013971           
         C13       1.0000    0.68130   0.55630   0.04380   Biso      1.000     C          0.553756  
         C14       1.0000    0.58760   0.35890   0.27520   Biso      1.000     C          -0.099286           
         C15       1.0000    0.05310   0.18890   0.35500   Biso      1.000     C          0.627174  
         C16       1.0000    0.95440   0.29970   0.31570   Biso      1.000     C          -0.101559           
         C17       1.0000    0.03840   0.26180   0.31200   Biso      1.000     C          -0.018058           
         C18       1.0000    0.41240   0.85890   0.22480   Biso      1.000     C          -0.099284           
         C19       1.0000    0.08760   0.35890   0.22480   Biso      1.000     C          -0.099286           
         C20       1.0000    0.00160   0.39590   0.22760   Biso      1.000     C          -0.017407           
         C21       1.0000    0.98080   0.46460   0.17790   Biso      1.000     C          0.598621  
         C22       1.0000    0.46230   0.06410   0.53280   Biso      1.000     C          -0.109033           
         C23       1.0000    0.45260   0.96200   0.44510   Biso      1.000     C          -0.098853           
         C24       1.0000    0.41320   0.02670   0.47730   Biso      1.000     C          -0.013971           
         C25       1.0000    0.31870   0.05630   0.45620   Biso      1.000     C          0.553754  
         C26       1.0000    0.94690   0.68890   0.14500   Biso      1.000     C          0.627173  
         C27       1.0000    0.06500   0.86500   0.22480   Biso      1.000     C          -0.101895           
         C28       1.0000    0.93500   0.36500   0.27520   Biso      1.000     C          -0.101882           
         C29       1.0000    0.04560   0.79970   0.18430   Biso      1.000     C          -0.101547           
         C30       1.0000    0.50160   0.39590   0.27240   Biso      1.000     C          -0.017406           
         C31       1.0000    0.96230   0.06410   0.96720   Biso      1.000     C          -0.109035           
         C32       1.0000    0.49840   0.89590   0.22760   Biso      1.000     C          -0.01741  
         C33       1.0000    0.51920   0.96460   0.17790   Biso      1.000     C          0.598618  
         C34       1.0000    0.55310   0.31110   0.64500   Biso      1.000     C          0.627173  
         C35       1.0000    0.18130   0.94370   0.95620   Biso      1.000     C          0.553744  
         C36       1.0000    0.08680   0.97330   0.97730   Biso      1.000     C          -0.013975           
         C37       1.0000    0.04740   0.03800   0.94510   Biso      1.000     C          -0.098843           
         C38       1.0000    0.03770   0.93590   0.03280   Biso      1.000     C          -0.109034           
         C39       1.0000    0.51920   0.53540   0.67790   Biso      1.000     C          0.59862   
         C40       1.0000    0.49840   0.60410   0.72760   Biso      1.000     C          -0.01741  
         C41       1.0000    0.41240   0.64110   0.72480   Biso      1.000     C          -0.099284           
         C42       1.0000    0.39430   0.70720   0.76760   Biso      1.000     C          -0.096863           
         C43       1.0000    0.46160   0.73820   0.81200   Biso      1.000     C          -0.018052           
         C44       1.0000    0.48080   0.46460   0.32210   Biso      1.000     C          0.598621  
         C45       1.0000    0.54560   0.70030   0.81570   Biso      1.000     C          -0.101559           
         C46       1.0000    0.44690   0.81110   0.85500   Biso      1.000     C          0.627173  
         C47       1.0000    0.81870   0.44370   0.54380   Biso      1.000     C          0.553759  
         C48       1.0000    0.91320   0.47330   0.52270   Biso      1.000     C          -0.013976           
         C49       1.0000    0.95260   0.53800   0.55490   Biso      1.000     C          -0.098848           
         C50       1.0000    0.96230   0.43590   0.46720   Biso      1.000     C          -0.109034           
         C51       1.0000    0.46160   0.76180   0.31200   Biso      1.000     C          -0.018057           
         C52       1.0000    0.54560   0.79970   0.31570   Biso      1.000     C          -0.101559           
         C53       1.0000    0.56500   0.86500   0.27520   Biso      1.000     C          -0.10188  
         C54       1.0000    0.44690   0.68890   0.35500   Biso      1.000     C          0.627173  
         C55       1.0000    0.81870   0.05630   0.04380   Biso      1.000     C          0.553755  
         C56       1.0000    0.91320   0.02670   0.02270   Biso      1.000     C          -0.013976           
         C57       1.0000    0.95260   0.96200   0.05490   Biso      1.000     C          -0.098844           
         C58       1.0000    0.56500   0.63500   0.77520   Biso      1.000     C          -0.101881           
         C59       1.0000    0.96160   0.76180   0.18800   Biso      1.000     C          -0.018059           
         C60       1.0000    0.10570   0.29280   0.26760   Biso      1.000     C          -0.096857           
         C61       1.0000    0.91240   0.85890   0.27520   Biso      1.000     C          -0.099286           
         C62       1.0000    0.93500   0.13500   0.77520   Biso      1.000     C          -0.101893           
         C63       1.0000    0.95440   0.20030   0.81570   Biso      1.000     C          -0.101547           
         C64       1.0000    0.03840   0.23820   0.81200   Biso      1.000     C          -0.018059           
         C65       1.0000    0.10570   0.20720   0.76760   Biso      1.000     C          -0.096857           
         C66       1.0000    0.08760   0.14110   0.72480   Biso      1.000     C          -0.099285           
         C67       1.0000    0.00160   0.10410   0.72760   Biso      1.000     C          -0.017408           
         C68       1.0000    0.98080   0.03540   0.67790   Biso      1.000     C          0.59862   
         C69       1.0000    0.89430   0.79280   0.23240   Biso      1.000     C          -0.096858           
         C70       1.0000    0.04740   0.46200   0.44510   Biso      1.000     C          -0.098841           
         C71       1.0000    0.03770   0.56410   0.53280   Biso      1.000     C          -0.109027           
         C72       1.0000    0.48080   0.03540   0.82210   Biso      1.000     C          0.59862   
         C73       1.0000    0.50160   0.10410   0.77240   Biso      1.000     C          -0.017405           
         C74       1.0000    0.58760   0.14110   0.77520   Biso      1.000     C          -0.099285           
         C75       1.0000    0.60570   0.20720   0.73240   Biso      1.000     C          -0.096863           
         C76       1.0000    0.53840   0.23820   0.68800   Biso      1.000     C          -0.018055           
         C77       1.0000    0.05310   0.31110   0.85500   Biso      1.000     C          0.627174  
         C78       1.0000    0.68130   0.94370   0.54380   Biso      1.000     C          0.553765  
         C79       1.0000    0.39430   0.79280   0.26760   Biso      1.000     C          -0.096858           
         C80       1.0000    0.54740   0.03800   0.55490   Biso      1.000     C          -0.098846           
         C81       1.0000    0.99840   0.89590   0.27240   Biso      1.000     C          -0.017405           
         C82       1.0000    0.01920   0.96460   0.32210   Biso      1.000     C          0.598621  
         C83       1.0000    0.46230   0.43590   0.03280   Biso      1.000     C          -0.109026           
         C84       1.0000    0.45260   0.53800   0.94510   Biso      1.000     C          -0.098846           
         C85       1.0000    0.41320   0.47330   0.97730   Biso      1.000     C          -0.013973           
         C86       1.0000    0.31870   0.44370   0.95620   Biso      1.000     C          0.553761  
         C87       1.0000    0.58680   0.97330   0.52270   Biso      1.000     C          -0.013973           
         C88       1.0000    0.06500   0.63500   0.72480   Biso      1.000     C          -0.101894           
         C89       1.0000    0.94690   0.81110   0.64500   Biso      1.000     C          0.627173  
         C90       1.0000    0.53770   0.93590   0.46720   Biso      1.000     C          -0.109027           
         C91       1.0000    0.01920   0.53540   0.82210   Biso      1.000     C          0.598621  
         C92       1.0000    0.99840   0.60410   0.77240   Biso      1.000     C          -0.017406           
         C93       1.0000    0.91240   0.64110   0.77520   Biso      1.000     C          -0.099284           
         C94       1.0000    0.89430   0.70720   0.73240   Biso      1.000     C          -0.096863           
         C95       1.0000    0.96160   0.73820   0.68800   Biso      1.000     C          -0.018054           
         C96       1.0000    0.04560   0.70030   0.68430   Biso      1.000     C          -0.101547           
         H1        1.0000    0.87740   0.38890   0.27920   Biso      1.000     H          0.12403   
         H2        1.0000    0.93690   0.10800   0.94430   Biso      1.000     H          0.108817  
         H3        1.0000    0.63340   0.37880   0.30610   Biso      1.000     H          0.12597   
         H4        1.0000    0.66380   0.26960   0.23400   Biso      1.000     H          0.123415  
         H5        1.0000    0.40910   0.27980   0.15290   Biso      1.000     H          0.115035  
         H6        1.0000    0.37740   0.38890   0.22080   Biso      1.000     H          0.12403   
         H7        1.0000    0.07880   0.43540   0.40770   Biso      1.000     H          0.114516  
         H8        1.0000    0.06310   0.60800   0.55570   Biso      1.000     H          0.108816  
         H9        1.0000    0.63340   0.12120   0.80610   Biso      1.000     H          0.125969  
         H10       1.0000    0.66380   0.23040   0.73400   Biso      1.000     H          0.123415  
         H11       1.0000    0.40910   0.22020   0.65290   Biso      1.000     H          0.115033  
         H12       1.0000    0.37740   0.11110   0.72080   Biso      1.000     H          0.12403   
         H13       1.0000    0.07880   0.06460   0.90770   Biso      1.000     H          0.114517  
         H14       1.0000    0.06310   0.89200   0.05570   Biso      1.000     H          0.108818  
         H15       1.0000    0.36660   0.62120   0.69390   Biso      1.000     H          0.12597   
         H16       1.0000    0.33620   0.73040   0.76600   Biso      1.000     H          0.123415  
         H17       1.0000    0.59090   0.72020   0.84710   Biso      1.000     H          0.115035  
         H18       1.0000    0.62260   0.61110   0.77920   Biso      1.000     H          0.12403   
         H19       1.0000    0.92120   0.56460   0.59230   Biso      1.000     H          0.114517  
         H20       1.0000    0.93690   0.39200   0.44430   Biso      1.000     H          0.108816  
         H21       1.0000    0.92120   0.93540   0.09230   Biso      1.000     H          0.114516  
         H22       1.0000    0.62260   0.88890   0.27920   Biso      1.000     H          0.12403   
         H23       1.0000    0.36660   0.87880   0.19390   Biso      1.000     H          0.12597   
         H24       1.0000    0.33620   0.76960   0.26600   Biso      1.000     H          0.123414  
         H25       1.0000    0.90910   0.27980   0.34710   Biso      1.000     H          0.115034  
         H26       1.0000    0.16380   0.26960   0.26600   Biso      1.000     H          0.123415  
         H27       1.0000    0.13340   0.37880   0.19390   Biso      1.000     H          0.12597   
         H28       1.0000    0.43690   0.10800   0.55570   Biso      1.000     H          0.108816  
         H29       1.0000    0.42120   0.93540   0.40770   Biso      1.000     H          0.114517  
         H30       1.0000    0.12260   0.88890   0.22080   Biso      1.000     H          0.124031  
         H31       1.0000    0.09090   0.77980   0.15290   Biso      1.000     H          0.115034  
         H32       1.0000    0.83620   0.76960   0.23400   Biso      1.000     H          0.123415  
         H33       1.0000    0.86660   0.87880   0.30610   Biso      1.000     H          0.12597   
         H34       1.0000    0.43690   0.39200   0.05570   Biso      1.000     H          0.108815  
         H35       1.0000    0.59090   0.77980   0.34710   Biso      1.000     H          0.115034  
         H36       1.0000    0.42120   0.56460   0.90770   Biso      1.000     H          0.114517  
         H37       1.0000    0.09090   0.72020   0.65290   Biso      1.000     H          0.115034  
         H38       1.0000    0.83620   0.73040   0.73400   Biso      1.000     H          0.123415  
         H39       1.0000    0.86660   0.62120   0.80610   Biso      1.000     H          0.12597   
         H40       1.0000    0.56310   0.89200   0.44430   Biso      1.000     H          0.108815  
         H41       1.0000    0.57880   0.06460   0.59230   Biso      1.000     H          0.114517  
         H42       1.0000    0.87740   0.11110   0.77920   Biso      1.000     H          0.124031  
         H43       1.0000    0.90910   0.22020   0.84710   Biso      1.000     H          0.115034  
         H44       1.0000    0.16380   0.23040   0.76600   Biso      1.000     H          0.123414  
         H45       1.0000    0.13340   0.12120   0.69390   Biso      1.000     H          0.12597   
         H46       1.0000    0.57880   0.43540   0.09230   Biso      1.000     H          0.114517  
         H47       1.0000    0.56310   0.60800   0.94430   Biso      1.000     H          0.108816  
         H48       1.0000    0.12260   0.61110   0.72080   Biso      1.000     H          0.124031  
         O1        1.0000    0.71710   0.61030   0.00980   Biso      1.000     O          -0.404353           
         O2        1.0000    0.60200   0.98810   0.18030   Biso      1.000     O          -0.508586           
         O3        1.0000    0.36540   0.84060   0.85340   Biso      1.000     O          -0.540093           
         O4        1.0000    0.51210   0.83890   0.89030   Biso      1.000     O          -0.571387           
         O5        1.0000    0.45570   0.50990   0.63860   Biso      1.000     O          -0.537771           
         O6        1.0000    0.60200   0.51190   0.68030   Biso      1.000     O          -0.508586           
         O7        1.0000    0.58200   0.46150   0.51110   Biso      1.000     O          -0.734293           
         O8        1.0000    0.21710   0.88970   0.99020   Biso      1.000     O          -0.404338           
         O9        1.0000    0.21990   0.98010   0.90250   Biso      1.000     O          -0.512418           
         O10       1.0000    0.63460   0.34060   0.64660   Biso      1.000     O          -0.540093           
         O11       1.0000    0.48790   0.33890   0.60970   Biso      1.000     O          -0.571387           
         O12       1.0000    0.54430   0.00990   0.86140   Biso      1.000     O          -0.537775           
         O13       1.0000    0.39800   0.01190   0.81970   Biso      1.000     O          -0.508585           
         O14       1.0000    0.41800   0.96150   0.98890   Biso      1.000     O          -0.734295           
         O15       1.0000    0.21990   0.51990   0.40250   Biso      1.000     O          -0.512419           
         O16       1.0000    0.63460   0.15940   0.14660   Biso      1.000     O          -0.540093           
         O17       1.0000    0.48790   0.16110   0.10970   Biso      1.000     O          -0.571386           
         O18       1.0000    0.54430   0.49010   0.36140   Biso      1.000     O          -0.537774           
         O19       1.0000    0.39800   0.48810   0.31970   Biso      1.000     O          -0.508585           
         O20       1.0000    0.41800   0.53850   0.48890   Biso      1.000     O          -0.734283           
         O21       1.0000    0.78290   0.11030   0.00980   Biso      1.000     O          -0.404353           
         O22       1.0000    0.78010   0.01990   0.09750   Biso      1.000     O          -0.512416           
         O23       1.0000    0.36540   0.65940   0.35340   Biso      1.000     O          -0.540093           
         O24       1.0000    0.51210   0.66110   0.39030   Biso      1.000     O          -0.571387           
         O25       1.0000    0.45570   0.99010   0.13860   Biso      1.000     O          -0.537772           
         O26       1.0000    0.58200   0.03850   0.01110   Biso      1.000     O          -0.734301           
         O27       1.0000    0.21710   0.61030   0.49020   Biso      1.000     O          -0.404353           
         O28       1.0000    0.78290   0.38970   0.50980   Biso      1.000     O          -0.404354           
         O29       1.0000    0.28290   0.38970   0.99020   Biso      1.000     O          -0.404362           
         O30       1.0000    0.04430   0.00990   0.63860   Biso      1.000     O          -0.537771           
         O31       1.0000    0.98790   0.33890   0.89030   Biso      1.000     O          -0.571387           
         O32       1.0000    0.13460   0.34060   0.85340   Biso      1.000     O          -0.540095           
         O33       1.0000    0.71990   0.98010   0.59750   Biso      1.000     O          -0.512417           
         O34       1.0000    0.71710   0.88970   0.50980   Biso      1.000     O          -0.404366           
         O35       1.0000    0.08200   0.46150   0.98890   Biso      1.000     O          -0.734286           
         O36       1.0000    0.10200   0.51190   0.81970   Biso      1.000     O          -0.508587           
         O37       1.0000    0.95570   0.50990   0.86140   Biso      1.000     O          -0.537771           
         O38       1.0000    0.01210   0.83890   0.60970   Biso      1.000     O          -0.571387           
         O39       1.0000    0.86540   0.84060   0.64660   Biso      1.000     O          -0.540094           
         O40       1.0000    0.28010   0.48010   0.90250   Biso      1.000     O          -0.512418           
         O41       1.0000    0.08200   0.03850   0.48890   Biso      1.000     O          -0.734288           
         O42       1.0000    0.10200   0.98810   0.31970   Biso      1.000     O          -0.508584           
         O43       1.0000    0.95570   0.99010   0.36140   Biso      1.000     O          -0.537773           
         O44       1.0000    0.89800   0.01190   0.68030   Biso      1.000     O          -0.508588           
         O45       1.0000    0.01210   0.66110   0.10970   Biso      1.000     O          -0.571387           
         O46       1.0000    0.28010   0.01990   0.40250   Biso      1.000     O          -0.512417           
         O47       1.0000    0.78010   0.48010   0.59750   Biso      1.000     O          -0.512415           
         O48       1.0000    0.86540   0.65940   0.14660   Biso      1.000     O          -0.540093           
         O49       1.0000    0.13460   0.15940   0.35340   Biso      1.000     O          -0.540094           
         O50       1.0000    0.98790   0.16110   0.39030   Biso      1.000     O          -0.571387           
         O51       1.0000    0.71990   0.51990   0.09750   Biso      1.000     O          -0.512417           
         O52       1.0000    0.89800   0.48810   0.18030   Biso      1.000     O          -0.508587           
         O53       1.0000    0.91800   0.53850   0.01110   Biso      1.000     O          -0.734287           
         O54       1.0000    0.28290   0.11030   0.49020   Biso      1.000     O          -0.404348           
         O55       1.0000    0.04430   0.49010   0.13860   Biso      1.000     O          -0.537773           
         O56       1.0000    0.91800   0.96150   0.51110   Biso      1.000     O          -0.734288           
         Zn1       1.0000    0.05399   0.56361   0.04667   Biso      1.000     Zn          1.038082  
         Zn2       1.0000    0.84644   0.55527   0.10166   Biso      1.000     Zn          0.936384  
         Zn3       1.0000    0.94601   0.06361   0.45333   Biso      1.000     Zn          1.038083  
         Zn4       1.0000    0.15356   0.05527   0.39834   Biso      1.000     Zn          0.936384  
         Zn5       1.0000    0.94601   0.43639   0.95333   Biso      1.000     Zn          1.038082  
         Zn6       1.0000    0.15356   0.44473   0.89834   Biso      1.000     Zn          0.936387  
         Zn7       1.0000    0.05399   0.93639   0.54667   Biso      1.000     Zn          1.038083  
         Zn8       1.0000    0.65356   0.44473   0.60166   Biso      1.000     Zn          0.936383  
         Zn9       1.0000    0.65356   0.05527   0.10166   Biso      1.000     Zn          0.936388  
         Zn10      1.0000    0.44601   0.06361   0.04667   Biso      1.000     Zn          1.03809   
         Zn11      1.0000    0.34644   0.55527   0.39834   Biso      1.000     Zn          0.936384  
         Zn12      1.0000    0.55399   0.56361   0.45333   Biso      1.000     Zn          1.038083  
         Zn13      1.0000    0.34644   0.94473   0.89834   Biso      1.000     Zn          0.936387  
         Zn14      1.0000    0.55399   0.93639   0.95333   Biso      1.000     Zn          1.03809   
         Zn15      1.0000    0.44601   0.43639   0.54667   Biso      1.000     Zn          1.038082  
         Zn16      1.0000    0.84644   0.94473   0.60166   Biso      1.000     Zn          0.936384 