
##########################################################################
#               Crystallographic Information Format file
#               Produced by PyCifRW module
#
#  This is a CIF file.  CIF has been adopted by the International
#  Union of Crystallography as the standard for data archiving and
#  transmission.
#
#  For information on this file format, follow the CIF links at
#  http://www.iucr.org
##########################################################################

data_image0

_cell_length_a                          10.5136
_cell_length_b                          11.465
_cell_length_c                          13.4175
_cell_angle_alpha                       69.084
_cell_angle_beta                        78.607
_cell_angle_gamma                       63.542
_symmetry_space_group_name_H-M          'P 1'
_symmetry_int_tables_number             1
loop_
  _symmetry_equiv_pos_as_xyz
         'x, y, z' 
loop_
  _atom_site_label
  _atom_site_occupancy
  _atom_site_fract_x
  _atom_site_fract_y
  _atom_site_fract_z
  _atom_site_thermal_displace_type
  _atom_site_B_iso_or_equiv
  _atom_site_type_symbol
  _atom_site_charge
         C1        1.0000    0.74450   0.74540   0.50790   Biso      1.000     C          0.53174   
         C2        1.0000    0.86090   0.46180   0.85920   Biso      1.000     C          0.532844  
         C3        1.0000    0.36220   0.19440   0.95570   Biso      1.000     C          0.650935  
         C4        1.0000    0.40680   0.04160   0.79580   Biso      1.000     C          0.669901  
         C5        1.0000    0.89370   0.29120   0.72550   Biso      1.000     C          0.701738  
         C6        1.0000    0.46800   0.74750   0.62130   Biso      1.000     C          0.6387149999999999  
         C7        1.0000    0.10630   0.70880   0.27450   Biso      1.000     C          0.701745  
         C8        1.0000    0.25550   0.25460   0.49210   Biso      1.000     C          0.53178   
         C9        1.0000    0.00210   0.65650   0.14720   Biso      1.000     C          -0.061114999999999996         
         C10       1.0000    0.88890   0.68710   0.09050   Biso      1.000     C          -0.098899           
         C11       1.0000    0.75400   0.78490   0.10520   Biso      1.000     C          -0.091316           
         C12       1.0000    0.73430   0.85870   0.17530   Biso      1.000     C          -0.043437           
         C13       1.0000    0.85320   0.83390   0.22550   Biso      1.000     C          -0.150228           
         C14       1.0000    0.98670   0.73270   0.21460   Biso      1.000     C          -0.057846           
         C15       1.0000    0.37370   0.00060   0.54990   Biso      1.000     C          -0.13251400000000002          
         C16       1.0000    0.38360   0.12410   0.49460   Biso      1.000     C          -0.059910000000000005         
         C17       1.0000    0.51300   0.12380   0.44390   Biso      1.000     C          -0.048114           
         C18       1.0000    0.13910   0.53820   0.14080   Biso      1.000     C          0.532825  
         C19       1.0000    0.63780   0.80560   0.04430   Biso      1.000     C          0.65089   
         C20       1.0000    0.59320   0.95840   0.20420   Biso      1.000     C          0.6699430000000001  
         C21       1.0000    0.48700   0.87620   0.55610   Biso      1.000     C          -0.048111           
         C22       1.0000    0.61640   0.87590   0.50540   Biso      1.000     C          -0.059917           
         C23       1.0000    0.53200   0.25250   0.37870   Biso      1.000     C          0.638717  
         C24       1.0000    0.01330   0.26730   0.78540   Biso      1.000     C          -0.057814           
         C25       1.0000    0.62630   0.99940   0.45010   Biso      1.000     C          -0.132509           
         C26       1.0000    0.14680   0.16610   0.77450   Biso      1.000     C          -0.15023599999999998          
         C27       1.0000    0.26570   0.14130   0.82470   Biso      1.000     C          -0.043392           
         C28       1.0000    0.24600   0.21510   0.89480   Biso      1.000     C          -0.091324           
         C29       1.0000    0.11110   0.31290   0.90950   Biso      1.000     C          -0.098888           
         C30       1.0000    0.99790   0.34350   0.85280   Biso      1.000     C          -0.061108           
         Er1       1.0000    0.59886   0.23045   0.75015   Biso      1.000     Er          1.368622  
         Er2       1.0000    0.40114   0.76955   0.24985   Biso      1.000     Er          1.3685450000000001  
         H1        1.0000    0.71260   0.99850   0.41580   Biso      1.000     H          0.13564500000000002           
         H2        1.0000    0.84200   0.88740   0.26750   Biso      1.000     H          0.140251  
         H3        1.0000    0.28740   0.00150   0.58420   Biso      1.000     H          0.13564400000000001           
         H4        1.0000    0.90320   0.64140   0.04160   Biso      1.000     H          0.14703   
         H5        1.0000    0.09680   0.35860   0.95840   Biso      1.000     H          0.147033  
         H6        1.0000    0.15800   0.11260   0.73250   Biso      1.000     H          0.140257  
         O1        1.0000    0.81310   0.23570   0.77090   Biso      1.000     O          -0.617017           
         O2        1.0000    0.88610   0.36360   0.62690   Biso      1.000     O          -0.6428010000000001           
         O3        1.0000    0.50080   0.69390   0.71810   Biso      1.000     O          -0.6493260000000001           
         O4        1.0000    0.41850   0.92000   0.81930   Biso      1.000     O          -0.5988180000000001           
         O5        1.0000    0.50390   0.07840   0.75360   Biso      1.000     O          -0.659304           
         O6        1.0000    0.48410   0.17690   0.91680   Biso      1.000     O          -0.638026           
         O7        1.0000    0.32700   0.19710   0.05140   Biso      1.000     O          -0.617004           
         O8        1.0000    0.76080   0.49640   0.80170   Biso      1.000     O          -0.597735           
         O9        1.0000    0.84950   0.53740   0.91370   Biso      1.000     O          -0.597742           
         O10       1.0000    0.49920   0.30610   0.28190   Biso      1.000     O          -0.649392           
         O11       1.0000    0.73290   0.63400   0.53400   Biso      1.000     O          -0.592403           
         O12       1.0000    0.13460   0.25040   0.52120   Biso      1.000     O          -0.648026           
         O13       1.0000    0.26710   0.36600   0.46600   Biso      1.000     O          -0.592386           
         O14       1.0000    0.59030   0.29840   0.41920   Biso      1.000     O          -0.608766           
         O15       1.0000    0.67300   0.80290   0.94860   Biso      1.000     O          -0.6169359999999999           
         O16       1.0000    0.51590   0.82310   0.08320   Biso      1.000     O          -0.638033           
         O17       1.0000    0.49610   0.92160   0.24640   Biso      1.000     O          -0.659277           
         O18       1.0000    0.58150   0.08000   0.18070   Biso      1.000     O          -0.598849           
         O19       1.0000    0.11390   0.63640   0.37310   Biso      1.000     O          -0.642814           
         O20       1.0000    0.18690   0.76430   0.22910   Biso      1.000     O          -0.617003           
         O21       1.0000    0.23920   0.50360   0.19830   Biso      1.000     O          -0.5977359999999999           
         O22       1.0000    0.15050   0.46260   0.08630   Biso      1.000     O          -0.597777           
         O23       1.0000    0.86540   0.74960   0.47880   Biso      1.000     O          -0.648039           
         O24       1.0000    0.40970   0.70160   0.58080   Biso      1.000     O          -0.6087640000000001           
         U1        1.0000    0.62304   0.71343   0.83640   Biso      1.000     U          1.682807  
         U2        1.0000    0.37696   0.28657   0.16360   Biso      1.000     U          1.683185  
         U3        1.0000    0.00000   0.50000   0.50000   Biso      1.000     U          2.019861 