
##########################################################################
#               Crystallographic Information Format file
#               Produced by PyCifRW module
#
#  This is a CIF file.  CIF has been adopted by the International
#  Union of Crystallography as the standard for data archiving and
#  transmission.
#
#  For information on this file format, follow the CIF links at
#  http://www.iucr.org
##########################################################################

data_image0

_cell_length_a                          10.5626
_cell_length_b                          11.4559
_cell_length_c                          13.4839
_cell_angle_alpha                       69.112
_cell_angle_beta                        78.889
_cell_angle_gamma                       63.614
_symmetry_space_group_name_H-M          'P 1'
_symmetry_int_tables_number             1
loop_
  _symmetry_equiv_pos_as_xyz
         'x, y, z' 
loop_
  _atom_site_label
  _atom_site_occupancy
  _atom_site_fract_x
  _atom_site_fract_y
  _atom_site_fract_z
  _atom_site_thermal_displace_type
  _atom_site_B_iso_or_equiv
  _atom_site_type_symbol
  _atom_site_charge
         C1        1.0000    0.63660   0.80430   0.04460   Biso      1.000     C          0.65617   
         C2        1.0000    0.88700   0.68350   0.09280   Biso      1.000     C          -0.095356           
         C3        1.0000    0.00230   0.65430   0.15000   Biso      1.000     C          -0.06749400000000001          
         C4        1.0000    0.59260   0.95760   0.20220   Biso      1.000     C          0.672017  
         C5        1.0000    0.10570   0.70790   0.27510   Biso      1.000     C          0.70396   
         C6        1.0000    0.52830   0.25580   0.37800   Biso      1.000     C          0.643741  
         C7        1.0000    0.25570   0.25270   0.49210   Biso      1.000     C          0.5482239999999999  
         C8        1.0000    0.73310   0.85600   0.17740   Biso      1.000     C          -0.046298           
         C9        1.0000    0.85300   0.83380   0.22540   Biso      1.000     C          -0.147357           
         C10       1.0000    0.98540   0.73260   0.21380   Biso      1.000     C          -0.055354999999999994         
         C11       1.0000    0.37190   0.00040   0.54990   Biso      1.000     C          -0.132795           
         C12       1.0000    0.13820   0.53440   0.14590   Biso      1.000     C          0.533683  
         C13       1.0000    0.38200   0.12570   0.49430   Biso      1.000     C          -0.059579999999999994         
         C14       1.0000    0.50900   0.12630   0.44390   Biso      1.000     C          -0.051236000000000004         
         C15       1.0000    0.74430   0.74730   0.50790   Biso      1.000     C          0.548217  
         C16       1.0000    0.89430   0.29210   0.72490   Biso      1.000     C          0.703964  
         C17       1.0000    0.47170   0.74420   0.62200   Biso      1.000     C          0.643737  
         C18       1.0000    0.36340   0.19570   0.95540   Biso      1.000     C          0.656209  
         C19       1.0000    0.99770   0.34570   0.85000   Biso      1.000     C          -0.067511           
         C20       1.0000    0.11300   0.31650   0.90720   Biso      1.000     C          -0.095349           
         C21       1.0000    0.24830   0.21870   0.89270   Biso      1.000     C          -0.09842000000000001          
         C22       1.0000    0.26690   0.14400   0.82260   Biso      1.000     C          -0.046292           
         C23       1.0000    0.14700   0.16620   0.77460   Biso      1.000     C          -0.147361           
         C24       1.0000    0.40740   0.04240   0.79780   Biso      1.000     C          0.67199   
         C25       1.0000    0.01460   0.26740   0.78620   Biso      1.000     C          -0.055348           
         C26       1.0000    0.75170   0.78130   0.10730   Biso      1.000     C          -0.098401           
         C27       1.0000    0.61800   0.87430   0.50570   Biso      1.000     C          -0.059583000000000004         
         C28       1.0000    0.49100   0.87370   0.55610   Biso      1.000     C          -0.051235           
         C29       1.0000    0.86180   0.46560   0.85410   Biso      1.000     C          0.533672  
         C30       1.0000    0.62810   0.99960   0.45010   Biso      1.000     C          -0.132797           
         H1        1.0000    0.84290   0.88850   0.26590   Biso      1.000     H          0.14161300000000002           
         H2        1.0000    0.71380   0.99980   0.41690   Biso      1.000     H          0.139261  
         H3        1.0000    0.28620   0.00020   0.58310   Biso      1.000     H          0.139264  
         H4        1.0000    0.09870   0.36320   0.95530   Biso      1.000     H          0.145298  
         H5        1.0000    0.90130   0.63680   0.04470   Biso      1.000     H          0.145297  
         H6        1.0000    0.15710   0.11150   0.73410   Biso      1.000     H          0.141618  
         Ho1       1.0000    0.40058   0.76852   0.24950   Biso      1.000     Ho          1.376633  
         Ho2       1.0000    0.59942   0.23148   0.75050   Biso      1.000     Ho          1.376666  
         O1        1.0000    0.86590   0.75100   0.47760   Biso      1.000     O          -0.6628689999999999           
         O2        1.0000    0.23780   0.50420   0.19900   Biso      1.000     O          -0.5812069999999999           
         O3        1.0000    0.18550   0.76460   0.22910   Biso      1.000     O          -0.63037  
         O4        1.0000    0.11280   0.63830   0.37200   Biso      1.000     O          -0.6345529999999999           
         O5        1.0000    0.58320   0.07790   0.18250   Biso      1.000     O          -0.602488           
         O6        1.0000    0.51840   0.81940   0.08490   Biso      1.000     O          -0.632678           
         O7        1.0000    0.67300   0.80480   0.94810   Biso      1.000     O          -0.620911           
         O8        1.0000    0.49730   0.30600   0.28160   Biso      1.000     O          -0.650464           
         O9        1.0000    0.14910   0.46130   0.08810   Biso      1.000     O          -0.606163           
         O10       1.0000    0.49770   0.91990   0.24600   Biso      1.000     O          -0.659183           
         O11       1.0000    0.26300   0.36540   0.46320   Biso      1.000     O          -0.597022           
         O12       1.0000    0.58300   0.30270   0.41990   Biso      1.000     O          -0.610438           
         O13       1.0000    0.73700   0.63460   0.53680   Biso      1.000     O          -0.597028           
         O14       1.0000    0.41700   0.69730   0.58010   Biso      1.000     O          -0.610445           
         O15       1.0000    0.50270   0.69400   0.71840   Biso      1.000     O          -0.650483           
         O16       1.0000    0.32700   0.19520   0.05190   Biso      1.000     O          -0.620892           
         O17       1.0000    0.48160   0.18060   0.91510   Biso      1.000     O          -0.632672           
         O18       1.0000    0.50230   0.08010   0.75400   Biso      1.000     O          -0.659207           
         O19       1.0000    0.41680   0.92210   0.81750   Biso      1.000     O          -0.602521           
         O20       1.0000    0.88720   0.36170   0.62800   Biso      1.000     O          -0.634552           
         O21       1.0000    0.81450   0.23540   0.77090   Biso      1.000     O          -0.630374           
         O22       1.0000    0.76220   0.49580   0.80100   Biso      1.000     O          -0.581234           
         O23       1.0000    0.85090   0.53870   0.91190   Biso      1.000     O          -0.606175           
         O24       1.0000    0.13410   0.24900   0.52240   Biso      1.000     O          -0.6628689999999999           
         U1        1.0000    0.62316   0.71341   0.83667   Biso      1.000     U          1.670741  
         U2        1.0000    0.37684   0.28659   0.16333   Biso      1.000     U          1.6705459999999999  
         U3        1.0000    0.00000   0.50000   0.50000   Biso      1.000     U          2.022048 