
##########################################################################
#               Crystallographic Information Format file
#               Produced by PyCifRW module
#
#  This is a CIF file.  CIF has been adopted by the International
#  Union of Crystallography as the standard for data archiving and
#  transmission.
#
#  For information on this file format, follow the CIF links at
#  http://www.iucr.org
##########################################################################

data_image0

_cell_length_a                          10.5105
_cell_length_b                          11.439
_cell_length_c                          13.4443
_cell_angle_alpha                       68.998
_cell_angle_beta                        78.805
_cell_angle_gamma                       63.732
_symmetry_space_group_name_H-M          'P 1'
_symmetry_int_tables_number             1
loop_
  _symmetry_equiv_pos_as_xyz
         'x, y, z' 
loop_
  _atom_site_label
  _atom_site_occupancy
  _atom_site_fract_x
  _atom_site_fract_y
  _atom_site_fract_z
  _atom_site_thermal_displace_type
  _atom_site_B_iso_or_equiv
  _atom_site_type_symbol
  _atom_site_charge
         C1        1.0000    0.51010   0.12580   0.44460   Biso      1.000     C          -0.048063           
         C2        1.0000    0.13600   0.53740   0.14280   Biso      1.000     C          0.524547  
         C3        1.0000    0.63720   0.80500   0.04450   Biso      1.000     C          0.651875  
         C4        1.0000    0.59300   0.95700   0.20460   Biso      1.000     C          0.6737850000000001  
         C5        1.0000    0.10550   0.70820   0.27410   Biso      1.000     C          0.696472  
         C6        1.0000    0.53190   0.25390   0.37990   Biso      1.000     C          0.641813  
         C7        1.0000    0.25470   0.25300   0.49230   Biso      1.000     C          0.546916  
         C8        1.0000    0.75150   0.78390   0.10590   Biso      1.000     C          -0.091933           
         C9        1.0000    0.73500   0.85450   0.17690   Biso      1.000     C          -0.045219999999999996         
         C10       1.0000    0.85380   0.83380   0.22540   Biso      1.000     C          -0.151678           
         C11       1.0000    0.38340   0.12260   0.49550   Biso      1.000     C          -0.052423000000000004         
         C12       1.0000    0.98720   0.73350   0.21380   Biso      1.000     C          -0.052979           
         C13       1.0000    0.37440   0.00100   0.54790   Biso      1.000     C          -0.138649           
         C14       1.0000    0.74530   0.74700   0.50770   Biso      1.000     C          0.546908  
         C15       1.0000    0.46810   0.74610   0.62010   Biso      1.000     C          0.641811  
         C16       1.0000    0.00520   0.65650   0.14640   Biso      1.000     C          -0.060808           
         C17       1.0000    0.89450   0.29180   0.72590   Biso      1.000     C          0.696472  
         C18       1.0000    0.36280   0.19500   0.95550   Biso      1.000     C          0.651889  
         C19       1.0000    0.99480   0.34350   0.85360   Biso      1.000     C          -0.060814           
         C20       1.0000    0.11200   0.31410   0.90800   Biso      1.000     C          -0.09663300000000001          
         C21       1.0000    0.24850   0.21610   0.89410   Biso      1.000     C          -0.091935           
         C22       1.0000    0.26500   0.14550   0.82310   Biso      1.000     C          -0.045212           
         C23       1.0000    0.40700   0.04300   0.79540   Biso      1.000     C          0.673773  
         C24       1.0000    0.01280   0.26650   0.78620   Biso      1.000     C          -0.052973           
         C25       1.0000    0.14620   0.16620   0.77460   Biso      1.000     C          -0.15168099999999998          
         C26       1.0000    0.62560   0.99900   0.45210   Biso      1.000     C          -0.138668           
         C27       1.0000    0.61660   0.87740   0.50450   Biso      1.000     C          -0.052410000000000005         
         C28       1.0000    0.48990   0.87420   0.55540   Biso      1.000     C          -0.048065           
         C29       1.0000    0.86400   0.46260   0.85720   Biso      1.000     C          0.524547  
         C30       1.0000    0.88800   0.68590   0.09200   Biso      1.000     C          -0.096634           
         H1        1.0000    0.15750   0.11140   0.73370   Biso      1.000     H          0.14393499999999998           
         H2        1.0000    0.90140   0.63840   0.04470   Biso      1.000     H          0.14444500000000002           
         H3        1.0000    0.71220   0.99870   0.41950   Biso      1.000     H          0.13474   
         H4        1.0000    0.09860   0.36160   0.95530   Biso      1.000     H          0.14444400000000002           
         H5        1.0000    0.28780   0.00130   0.58050   Biso      1.000     H          0.134739  
         H6        1.0000    0.84250   0.88860   0.26630   Biso      1.000     H          0.14393399999999998           
         O1        1.0000    0.86570   0.75050   0.47970   Biso      1.000     O          -0.650297           
         O2        1.0000    0.23950   0.50380   0.19880   Biso      1.000     O          -0.601743           
         O3        1.0000    0.18800   0.76490   0.22880   Biso      1.000     O          -0.6316930000000001           
         O4        1.0000    0.11390   0.63760   0.37320   Biso      1.000     O          -0.636109           
         O5        1.0000    0.58250   0.07900   0.18150   Biso      1.000     O          -0.602308           
         O6        1.0000    0.51540   0.82000   0.08480   Biso      1.000     O          -0.645295           
         O7        1.0000    0.67100   0.80510   0.94830   Biso      1.000     O          -0.6119100000000001           
         O8        1.0000    0.49820   0.30600   0.28280   Biso      1.000     O          -0.6556850000000001           
         O9        1.0000    0.14840   0.46390   0.08520   Biso      1.000     O          -0.597639           
         O10       1.0000    0.49700   0.91990   0.24580   Biso      1.000     O          -0.657159           
         O11       1.0000    0.26500   0.36520   0.46510   Biso      1.000     O          -0.600999           
         O12       1.0000    0.13430   0.24950   0.52030   Biso      1.000     O          -0.650296           
         O13       1.0000    0.58780   0.30060   0.42040   Biso      1.000     O          -0.6016020000000001           
         O14       1.0000    0.73500   0.63480   0.53490   Biso      1.000     O          -0.601    
         O15       1.0000    0.41220   0.69940   0.57960   Biso      1.000     O          -0.601607           
         O16       1.0000    0.50180   0.69400   0.71720   Biso      1.000     O          -0.655674           
         O17       1.0000    0.32900   0.19490   0.05170   Biso      1.000     O          -0.611921           
         O18       1.0000    0.48460   0.18000   0.91520   Biso      1.000     O          -0.645292           
         O19       1.0000    0.50300   0.08010   0.75420   Biso      1.000     O          -0.65717  
         O20       1.0000    0.41750   0.92100   0.81850   Biso      1.000     O          -0.602309           
         O21       1.0000    0.88610   0.36240   0.62680   Biso      1.000     O          -0.636108           
         O22       1.0000    0.81200   0.23510   0.77120   Biso      1.000     O          -0.631696           
         O23       1.0000    0.76050   0.49620   0.80120   Biso      1.000     O          -0.601748           
         O24       1.0000    0.85160   0.53610   0.91480   Biso      1.000     O          -0.5976319999999999           
         Tm1       1.0000    0.59821   0.23153   0.75042   Biso      1.000     Tm          1.373085  
         Tm2       1.0000    0.40179   0.76847   0.24958   Biso      1.000     Tm          1.3730639999999998  
         U1        1.0000    0.62220   0.71335   0.83679   Biso      1.000     U          1.6874790000000002  
         U2        1.0000    0.37780   0.28665   0.16321   Biso      1.000     U          1.6875200000000001  
         U3        1.0000    0.00000   0.50000   0.50000   Biso      1.000     U          2.023475 