
##########################################################################
#               Crystallographic Information Format file
#               Produced by PyCifRW module
#
#  This is a CIF file.  CIF has been adopted by the International
#  Union of Crystallography as the standard for data archiving and
#  transmission.
#
#  For information on this file format, follow the CIF links at
#  http://www.iucr.org
##########################################################################

data_image0

_cell_length_a                          7.0807
_cell_length_b                          18.1874
_cell_length_c                          24.8237
_cell_angle_alpha                       90
_cell_angle_beta                        90
_cell_angle_gamma                       99.022
_symmetry_space_group_name_H-M          'P 1'
_symmetry_int_tables_number             1
loop_
  _symmetry_equiv_pos_as_xyz
         'x, y, z' 
loop_
  _atom_site_label
  _atom_site_occupancy
  _atom_site_fract_x
  _atom_site_fract_y
  _atom_site_fract_z
  _atom_site_thermal_displace_type
  _atom_site_B_iso_or_equiv
  _atom_site_type_symbol
  _atom_site_charge
         C1        1.0000    0.34540   0.79870   0.05210   Biso      1.000     C          0.030531  
         C2        1.0000    0.87190   0.72260   0.10120   Biso      1.000     C          0.087869  
         C3        1.0000    0.87890   0.79760   0.09250   Biso      1.000     C          -0.143318           
         C4        1.0000    0.32640   0.87750   0.06690   Biso      1.000     C          0.580078  
         C5        1.0000    0.32430   0.77380   0.00000   Biso      1.000     C          -0.14616  
         C6        1.0000    0.33600   0.70030   0.98900   Biso      1.000     C          0.066238  
         C7        1.0000    0.38940   0.67630   0.07750   Biso      1.000     C          0.080903  
         C8        1.0000    0.37610   0.74850   0.09180   Biso      1.000     C          -0.129731           
         C9        1.0000    0.05290   0.14380   0.36450   Biso      1.000     C          0.591415  
         C10       1.0000    0.97540   0.21490   0.35220   Biso      1.000     C          0.036061  
         C11       1.0000    0.78610   0.21560   0.34210   Biso      1.000     C          -0.15054  
         C12       1.0000    0.72390   0.28340   0.33230   Biso      1.000     C          0.072678  
         C13       1.0000    0.02380   0.34700   0.34320   Biso      1.000     C          0.075834  
         C14       1.0000    0.09610   0.28290   0.35300   Biso      1.000     C          -0.148129           
         C15       1.0000    0.85950   0.90350   0.47250   Biso      1.000     C          0.703617  
         C16       1.0000    0.85450   0.82220   0.45950   Biso      1.000     C          -0.009702           
         C17       1.0000    0.82120   0.69530   0.01300   Biso      1.000     C          0.073482  
         C18       1.0000    0.82300   0.76900   0.00040   Biso      1.000     C          -0.145991           
         C19       1.0000    0.85450   0.82220   0.04050   Biso      1.000     C          -0.009701           
         C20       1.0000    0.85950   0.90350   0.02750   Biso      1.000     C          0.703623  
         C21       1.0000    0.14550   0.17780   0.54050   Biso      1.000     C          -0.00971  
         C22       1.0000    0.17700   0.23100   0.50040   Biso      1.000     C          -0.146027           
         C23       1.0000    0.17880   0.30470   0.51300   Biso      1.000     C          0.073471  
         C24       1.0000    0.12810   0.27740   0.60120   Biso      1.000     C          0.087884  
         C25       1.0000    0.12110   0.20240   0.59250   Biso      1.000     C          -0.143284           
         C26       1.0000    0.67360   0.12250   0.56690   Biso      1.000     C          0.580058  
         C27       1.0000    0.65460   0.20130   0.55210   Biso      1.000     C          0.030541  
         C28       1.0000    0.82300   0.76900   0.49960   Biso      1.000     C          -0.146008           
         C29       1.0000    0.67570   0.22620   0.50000   Biso      1.000     C          -0.146179           
         C30       1.0000    0.61060   0.32370   0.57750   Biso      1.000     C          0.080909  
         C31       1.0000    0.62390   0.25150   0.59180   Biso      1.000     C          -0.129715           
         C32       1.0000    0.05290   0.14380   0.13550   Biso      1.000     C          0.591418  
         C33       1.0000    0.97540   0.21490   0.14780   Biso      1.000     C          0.03605   
         C34       1.0000    0.78610   0.21560   0.15790   Biso      1.000     C          -0.150538           
         C35       1.0000    0.72390   0.28340   0.16770   Biso      1.000     C          0.072674  
         C36       1.0000    0.02380   0.34700   0.15680   Biso      1.000     C          0.075831  
         C37       1.0000    0.66400   0.29970   0.48900   Biso      1.000     C          0.066207  
         C38       1.0000    0.82120   0.69530   0.48700   Biso      1.000     C          0.073489  
         C39       1.0000    0.87190   0.72260   0.39880   Biso      1.000     C          0.087855  
         C40       1.0000    0.87890   0.79760   0.40750   Biso      1.000     C          -0.143324           
         C41       1.0000    0.67570   0.22620   0.00000   Biso      1.000     C          -0.146182           
         C42       1.0000    0.66400   0.29970   0.01100   Biso      1.000     C          0.066214  
         C43       1.0000    0.61060   0.32370   0.92250   Biso      1.000     C          0.080911  
         C44       1.0000    0.62390   0.25150   0.90820   Biso      1.000     C          -0.129707           
         C45       1.0000    0.63620   0.14320   0.75000   Biso      1.000     C          0.580638  
         C46       1.0000    0.53380   0.21220   0.75000   Biso      1.000     C          0.04257   
         C47       1.0000    0.63740   0.28290   0.75000   Biso      1.000     C          -0.172223           
         C48       1.0000    0.65460   0.20130   0.94790   Biso      1.000     C          0.030552  
         C49       1.0000    0.54430   0.34410   0.75000   Biso      1.000     C          0.049998  
         C50       1.0000    0.33730   0.20670   0.75000   Biso      1.000     C          -0.153847           
         C51       1.0000    0.36380   0.85680   0.25000   Biso      1.000     C          0.580657  
         C52       1.0000    0.46620   0.78780   0.25000   Biso      1.000     C          0.042507  
         C53       1.0000    0.36260   0.71710   0.25000   Biso      1.000     C          -0.172177           
         C54       1.0000    0.45570   0.65590   0.25000   Biso      1.000     C          0.050068  
         C55       1.0000    0.74590   0.72950   0.25000   Biso      1.000     C          0.065661  
         C56       1.0000    0.66270   0.79330   0.25000   Biso      1.000     C          -0.153856           
         C57       1.0000    0.25410   0.27050   0.75000   Biso      1.000     C          0.065627  
         C58       1.0000    0.14050   0.09650   0.52750   Biso      1.000     C          0.703625  
         C59       1.0000    0.67360   0.12250   0.93310   Biso      1.000     C          0.580055  
         C60       1.0000    0.12810   0.27740   0.89880   Biso      1.000     C          0.087893  
         C61       1.0000    0.32640   0.87750   0.43310   Biso      1.000     C          0.580077  
         C62       1.0000    0.34540   0.79870   0.44790   Biso      1.000     C          0.030526  
         C63       1.0000    0.32430   0.77380   0.50000   Biso      1.000     C          -0.146162           
         C64       1.0000    0.33600   0.70030   0.51100   Biso      1.000     C          0.066228  
         C65       1.0000    0.38940   0.67630   0.42250   Biso      1.000     C          0.080899  
         C66       1.0000    0.37610   0.74850   0.40820   Biso      1.000     C          -0.129744           
         C67       1.0000    0.94710   0.85620   0.86450   Biso      1.000     C          0.591413  
         C68       1.0000    0.12110   0.20240   0.90750   Biso      1.000     C          -0.143278           
         C69       1.0000    0.02460   0.78510   0.85220   Biso      1.000     C          0.036053  
         C70       1.0000    0.27610   0.71660   0.83230   Biso      1.000     C          0.072664  
         C71       1.0000    0.97620   0.65300   0.84320   Biso      1.000     C          0.07582   
         C72       1.0000    0.90390   0.71710   0.85300   Biso      1.000     C          -0.14815  
         C73       1.0000    0.14050   0.09650   0.97250   Biso      1.000     C          0.703635  
         C74       1.0000    0.14550   0.17780   0.95950   Biso      1.000     C          -0.009709           
         C75       1.0000    0.17700   0.23100   0.99960   Biso      1.000     C          -0.146018           
         C76       1.0000    0.17880   0.30470   0.98700   Biso      1.000     C          0.073471  
         C77       1.0000    0.21390   0.78440   0.84210   Biso      1.000     C          -0.150531           
         C78       1.0000    0.90390   0.71710   0.64700   Biso      1.000     C          -0.148152           
         C79       1.0000    0.09610   0.28290   0.14700   Biso      1.000     C          -0.148134           
         C80       1.0000    0.27610   0.71660   0.66770   Biso      1.000     C          0.072669  
         C81       1.0000    0.21390   0.78440   0.65790   Biso      1.000     C          -0.150537           
         C82       1.0000    0.02460   0.78510   0.64780   Biso      1.000     C          0.036069  
         C83       1.0000    0.94710   0.85620   0.63550   Biso      1.000     C          0.59141   
         C84       1.0000    0.97620   0.65300   0.65680   Biso      1.000     C          0.075832  
         Cu1       1.0000    0.76981   0.56715   0.25000   Biso      1.000     Cu          0.131667  
         Cu2       1.0000    0.23019   0.43285   0.75000   Biso      1.000     Cu          0.131697  
         Cu3       1.0000    0.37790   0.54483   0.00784   Biso      1.000     Cu          0.168399  
         Cu4       1.0000    0.17511   0.43904   0.91957   Biso      1.000     Cu          0.194255  
         Cu5       1.0000    0.62210   0.45517   0.50784   Biso      1.000     Cu          0.168421  
         Cu6       1.0000    0.82489   0.56096   0.41957   Biso      1.000     Cu          0.194235  
         Cu7       1.0000    0.24945   0.55362   0.81649   Biso      1.000     Cu          0.167354  
         Cu8       1.0000    0.62210   0.45517   0.99216   Biso      1.000     Cu          0.168415  
         Cu9       1.0000    0.82489   0.56096   0.08043   Biso      1.000     Cu          0.194249  
         Cu10      1.0000    0.75055   0.44638   0.18351   Biso      1.000     Cu          0.167366  
         Cu11      1.0000    0.37790   0.54483   0.49216   Biso      1.000     Cu          0.1684    
         Cu12      1.0000    0.17511   0.43904   0.58043   Biso      1.000     Cu          0.19425   
         Cu13      1.0000    0.24945   0.55362   0.68351   Biso      1.000     Cu          0.167351  
         Cu14      1.0000    0.75055   0.44638   0.31649   Biso      1.000     Cu          0.167364  
         H1        1.0000    0.69990   0.17140   0.15830   Biso      1.000     H          0.134151  
         H2        1.0000    0.89960   0.83120   0.12100   Biso      1.000     H          0.134704  
         H3        1.0000    0.88790   0.70700   0.13630   Biso      1.000     H          0.089172  
         H4        1.0000    0.80320   0.66050   0.98530   Biso      1.000     H          0.083743  
         H5        1.0000    0.80300   0.78290   0.96510   Biso      1.000     H          0.126036  
         H6        1.0000    0.22570   0.28480   0.13990   Biso      1.000     H          0.126969  
         H7        1.0000    0.10740   0.39180   0.15590   Biso      1.000     H          0.085786  
         H8        1.0000    0.59470   0.28310   0.17470   Biso      1.000     H          0.089193  
         H9        1.0000    0.61250   0.23680   0.62760   Biso      1.000     H          0.140133  
         H10       1.0000    0.40530   0.71690   0.67470   Biso      1.000     H          0.089196  
         H11       1.0000    0.68080   0.31650   0.45370   Biso      1.000     H          0.086394  
         H12       1.0000    0.69760   0.19400   0.47240   Biso      1.000     H          0.129208  
         H13       1.0000    0.10040   0.16880   0.62100   Biso      1.000     H          0.13472   
         H14       1.0000    0.11210   0.29300   0.63630   Biso      1.000     H          0.089178  
         H15       1.0000    0.19680   0.33950   0.48530   Biso      1.000     H          0.083729  
         H16       1.0000    0.77430   0.71520   0.63990   Biso      1.000     H          0.126969  
         H17       1.0000    0.89260   0.60820   0.65590   Biso      1.000     H          0.085782  
         H18       1.0000    0.30240   0.80600   0.97240   Biso      1.000     H          0.129229  
         H19       1.0000    0.30010   0.82860   0.65830   Biso      1.000     H          0.134162  
         H20       1.0000    0.58740   0.35680   0.60430   Biso      1.000     H          0.09054   
         H21       1.0000    0.31920   0.68350   0.95370   Biso      1.000     H          0.086416  
         H22       1.0000    0.19700   0.21710   0.46510   Biso      1.000     H          0.126017  
         H23       1.0000    0.38750   0.76320   0.12760   Biso      1.000     H          0.140121  
         H24       1.0000    0.11210   0.29300   0.86370   Biso      1.000     H          0.08919   
         H25       1.0000    0.10040   0.16880   0.87900   Biso      1.000     H          0.134731  
         H26       1.0000    0.69760   0.19400   0.02760   Biso      1.000     H          0.129213  
         H27       1.0000    0.68080   0.31650   0.04630   Biso      1.000     H          0.086401  
         H28       1.0000    0.58740   0.35680   0.89570   Biso      1.000     H          0.090551  
         H29       1.0000    0.61250   0.23680   0.87240   Biso      1.000     H          0.140144  
         H30       1.0000    0.19680   0.33950   0.01470   Biso      1.000     H          0.083734  
         H31       1.0000    0.77030   0.28940   0.75000   Biso      1.000     H          0.116791  
         H32       1.0000    0.12130   0.26510   0.75000   Biso      1.000     H          0.088806  
         H33       1.0000    0.26100   0.16010   0.75000   Biso      1.000     H          0.140663  
         H34       1.0000    0.22970   0.71060   0.25000   Biso      1.000     H          0.116803  
         H35       1.0000    0.87870   0.73490   0.25000   Biso      1.000     H          0.088815  
         H36       1.0000    0.73900   0.83990   0.25000   Biso      1.000     H          0.140676  
         H37       1.0000    0.41260   0.64320   0.10430   Biso      1.000     H          0.090543  
         H38       1.0000    0.61730   0.39130   0.75000   Biso      1.000     H          0.079041  
         H39       1.0000    0.19700   0.21710   0.03490   Biso      1.000     H          0.126023  
         H40       1.0000    0.38270   0.60870   0.25000   Biso      1.000     H          0.079063  
         H41       1.0000    0.89260   0.60820   0.84410   Biso      1.000     H          0.085783  
         H42       1.0000    0.69990   0.17140   0.34170   Biso      1.000     H          0.134158  
         H43       1.0000    0.59470   0.28310   0.32530   Biso      1.000     H          0.089195  
         H44       1.0000    0.10740   0.39180   0.34410   Biso      1.000     H          0.085788  
         H45       1.0000    0.22570   0.28480   0.36010   Biso      1.000     H          0.126973  
         H46       1.0000    0.80300   0.78290   0.53490   Biso      1.000     H          0.12603   
         H47       1.0000    0.88790   0.70700   0.36370   Biso      1.000     H          0.089162  
         H48       1.0000    0.89960   0.83120   0.37900   Biso      1.000     H          0.134696  
         H49       1.0000    0.80320   0.66050   0.51470   Biso      1.000     H          0.083738  
         H50       1.0000    0.31920   0.68350   0.54630   Biso      1.000     H          0.086407  
         H51       1.0000    0.41260   0.64320   0.39570   Biso      1.000     H          0.090534  
         H52       1.0000    0.38750   0.76320   0.37240   Biso      1.000     H          0.14011   
         H53       1.0000    0.30010   0.82860   0.84170   Biso      1.000     H          0.134157  
         H54       1.0000    0.40530   0.71690   0.82530   Biso      1.000     H          0.089196  
         H55       1.0000    0.30240   0.80600   0.52760   Biso      1.000     H          0.129224  
         H56       1.0000    0.77430   0.71520   0.86010   Biso      1.000     H          0.126965  
         I1        1.0000    0.01945   0.55683   0.32980   Biso      1.000     I          -0.253911           
         I2        1.0000    0.00000   0.50000   0.50000   Biso      1.000     I          -0.325113           
         I3        1.0000    0.47414   0.44254   0.25000   Biso      1.000     I          -0.254414           
         I4        1.0000    0.00000   0.50000   0.00000   Biso      1.000     I          -0.325106           
         I5        1.0000    0.52586   0.55746   0.75000   Biso      1.000     I          -0.254408           
         I6        1.0000    0.50937   0.52974   0.91053   Biso      1.000     I          -0.273913           
         I7        1.0000    0.98055   0.44317   0.82980   Biso      1.000     I          -0.253878           
         I8        1.0000    0.49063   0.47026   0.41053   Biso      1.000     I          -0.273965           
         I9        1.0000    0.49063   0.47026   0.08947   Biso      1.000     I          -0.273943           
         I10       1.0000    0.50937   0.52974   0.58947   Biso      1.000     I          -0.273935           
         I11       1.0000    0.98055   0.44317   0.67020   Biso      1.000     I          -0.253873           
         I12       1.0000    0.01945   0.55683   0.17020   Biso      1.000     I          -0.253919           
         N1        1.0000    0.64860   0.66140   0.25000   Biso      1.000     N          -0.175026           
         N2        1.0000    0.35140   0.33860   0.75000   Biso      1.000     N          -0.175079           
         N3        1.0000    0.62940   0.34790   0.97280   Biso      1.000     N          -0.157181           
         N4        1.0000    0.15590   0.32880   0.93670   Biso      1.000     N          -0.164651           
         N5        1.0000    0.16050   0.65130   0.83250   Biso      1.000     N          -0.152242           
         N6        1.0000    0.37060   0.65210   0.47280   Biso      1.000     N          -0.157178           
         N7        1.0000    0.84410   0.67120   0.43670   Biso      1.000     N          -0.164651           
         N8        1.0000    0.83950   0.34870   0.33250   Biso      1.000     N          -0.152229           
         N9        1.0000    0.37060   0.65210   0.02720   Biso      1.000     N          -0.157166           
         N10       1.0000    0.84410   0.67120   0.06330   Biso      1.000     N          -0.164641           
         N11       1.0000    0.62940   0.34790   0.52720   Biso      1.000     N          -0.157191           
         N12       1.0000    0.15590   0.32880   0.56330   Biso      1.000     N          -0.164661           
         N13       1.0000    0.16050   0.65130   0.66750   Biso      1.000     N          -0.152238           
         N14       1.0000    0.83950   0.34870   0.16750   Biso      1.000     N          -0.152231           
         O1        1.0000    0.79300   0.91830   0.51732   Biso      1.000     O          -0.682919           
         O2        1.0000    0.23100   0.14640   0.36640   Biso      1.000     O          -0.698699           
         O3        1.0000    0.32670   0.89570   0.38506   Biso      1.000     O          -0.63859  
         O4        1.0000    0.92530   0.95030   0.43776   Biso      1.000     O          -0.662884           
         O5        1.0000    0.30210   0.92260   0.47029   Biso      1.000     O          -0.653576           
         O6        1.0000    0.06050   0.91410   0.87370   Biso      1.000     O          -0.62342  
         O7        1.0000    0.53140   0.08160   0.75000   Biso      1.000     O          -0.694198           
         O8        1.0000    0.20700   0.08170   0.01732   Biso      1.000     O          -0.682943           
         O9        1.0000    0.07470   0.04970   0.93776   Biso      1.000     O          -0.662843           
         O10       1.0000    0.80990   0.15280   0.75000   Biso      1.000     O          -0.641188           
         O11       1.0000    0.67330   0.10430   0.88506   Biso      1.000     O          -0.638484           
         O12       1.0000    0.93950   0.08590   0.37370   Biso      1.000     O          -0.623431           
         O13       1.0000    0.69790   0.07740   0.97029   Biso      1.000     O          -0.653632           
         O14       1.0000    0.76900   0.85360   0.86640   Biso      1.000     O          -0.698701           
         O15       1.0000    0.32670   0.89570   0.11494   Biso      1.000     O          -0.638566           
         O16       1.0000    0.46860   0.91840   0.25000   Biso      1.000     O          -0.693741           
         O17       1.0000    0.92530   0.95030   0.06224   Biso      1.000     O          -0.662871           
         O18       1.0000    0.79300   0.91830   0.98268   Biso      1.000     O          -0.682915           
         O19       1.0000    0.23100   0.14640   0.13360   Biso      1.000     O          -0.698699           
         O20       1.0000    0.93950   0.08590   0.12630   Biso      1.000     O          -0.62344  
         O21       1.0000    0.67330   0.10430   0.61494   Biso      1.000     O          -0.638502           
         O22       1.0000    0.69790   0.07740   0.52971   Biso      1.000     O          -0.65363  
         O23       1.0000    0.07470   0.04970   0.56224   Biso      1.000     O          -0.66285  
         O24       1.0000    0.20700   0.08170   0.48268   Biso      1.000     O          -0.682945           
         O25       1.0000    0.76900   0.85360   0.63360   Biso      1.000     O          -0.698699           
         O26       1.0000    0.06050   0.91410   0.62630   Biso      1.000     O          -0.623408           
         O27       1.0000    0.19010   0.84720   0.25000   Biso      1.000     O          -0.640879           
         O28       1.0000    0.30210   0.92260   0.02971   Biso      1.000     O          -0.65357  
         Sm1       1.0000    0.78245   0.98433   0.90262   Biso      1.000     Sm          2.150667  
         Sm2       1.0000    0.21755   0.01567   0.40262   Biso      1.000     Sm          2.150682  
         Sm3       1.0000    0.21755   0.01567   0.09738   Biso      1.000     Sm          2.15071   
         Sm4       1.0000    0.78245   0.98433   0.59738   Biso      1.000     Sm          2.150636 