
##########################################################################
#               Crystallographic Information Format file
#               Produced by PyCifRW module
#
#  This is a CIF file.  CIF has been adopted by the International
#  Union of Crystallography as the standard for data archiving and
#  transmission.
#
#  For information on this file format, follow the CIF links at
#  http://www.iucr.org
##########################################################################

data_image0

_cell_length_a                          7.1054
_cell_length_b                          18.2419
_cell_length_c                          24.9477
_cell_angle_alpha                       90
_cell_angle_beta                        90
_cell_angle_gamma                       99.522
_symmetry_space_group_name_H-M          'P 1'
_symmetry_int_tables_number             1
loop_
  _symmetry_equiv_pos_as_xyz
         'x, y, z' 
loop_
  _atom_site_label
  _atom_site_occupancy
  _atom_site_fract_x
  _atom_site_fract_y
  _atom_site_fract_z
  _atom_site_thermal_displace_type
  _atom_site_B_iso_or_equiv
  _atom_site_type_symbol
  _atom_site_charge
         C1        1.0000    0.34610   0.79690   0.05240   Biso      1.000     C          0.027921  
         C2        1.0000    0.09610   0.28480   0.14720   Biso      1.000     C          -0.152595           
         C3        1.0000    0.85590   0.90240   0.02840   Biso      1.000     C          0.688755  
         C4        1.0000    0.85310   0.82110   0.04057   Biso      1.000     C          -0.0067   
         C5        1.0000    0.82440   0.76870   0.00050   Biso      1.000     C          -0.145212           
         C6        1.0000    0.82350   0.69490   0.01290   Biso      1.000     C          0.076064  
         C7        1.0000    0.87260   0.72220   0.10160   Biso      1.000     C          0.087826  
         C8        1.0000    0.87880   0.79690   0.09220   Biso      1.000     C          -0.148192           
         C9        1.0000    0.32750   0.87540   0.06710   Biso      1.000     C          0.571688  
         C10       1.0000    0.32620   0.77220   0.00040   Biso      1.000     C          -0.147497           
         C11       1.0000    0.33770   0.69900   0.98940   Biso      1.000     C          0.065142  
         C12       1.0000    0.39020   0.67500   0.07770   Biso      1.000     C          0.079445  
         C13       1.0000    0.37760   0.74680   0.09200   Biso      1.000     C          -0.131246           
         C14       1.0000    0.05350   0.14580   0.36240   Biso      1.000     C          0.594764  
         C15       1.0000    0.97580   0.21700   0.35140   Biso      1.000     C          0.028268  
         C16       1.0000    0.78690   0.21710   0.34150   Biso      1.000     C          -0.148724           
         C17       1.0000    0.72410   0.28380   0.33220   Biso      1.000     C          0.073208  
         C18       1.0000    0.02310   0.34870   0.34330   Biso      1.000     C          0.082572  
         C19       1.0000    0.02310   0.34870   0.15670   Biso      1.000     C          0.082577  
         C20       1.0000    0.09610   0.28480   0.35280   Biso      1.000     C          -0.152587           
         C21       1.0000    0.72410   0.28380   0.16780   Biso      1.000     C          0.073206  
         C22       1.0000    0.97580   0.21700   0.14860   Biso      1.000     C          0.028268  
         C23       1.0000    0.14690   0.17890   0.54057   Biso      1.000     C          -0.006702           
         C24       1.0000    0.14410   0.09760   0.52840   Biso      1.000     C          0.688757  
         C25       1.0000    0.90390   0.71520   0.64720   Biso      1.000     C          -0.152594           
         C26       1.0000    0.97690   0.65130   0.65670   Biso      1.000     C          0.082579  
         C27       1.0000    0.27590   0.71620   0.66780   Biso      1.000     C          0.073209  
         C28       1.0000    0.21310   0.78290   0.65850   Biso      1.000     C          -0.14873  
         C29       1.0000    0.02420   0.78300   0.64860   Biso      1.000     C          0.028276  
         C30       1.0000    0.94650   0.85420   0.63760   Biso      1.000     C          0.594765  
         C31       1.0000    0.12740   0.27780   0.60160   Biso      1.000     C          0.087828  
         C32       1.0000    0.12120   0.20310   0.59220   Biso      1.000     C          -0.148193           
         C33       1.0000    0.67250   0.12460   0.56710   Biso      1.000     C          0.571689  
         C34       1.0000    0.65390   0.20310   0.55240   Biso      1.000     C          0.02792   
         C35       1.0000    0.67380   0.22780   0.50040   Biso      1.000     C          -0.147499           
         C36       1.0000    0.66230   0.30100   0.48940   Biso      1.000     C          0.065142  
         C37       1.0000    0.60980   0.32500   0.57770   Biso      1.000     C          0.079446  
         C38       1.0000    0.62240   0.25320   0.59200   Biso      1.000     C          -0.131245           
         C39       1.0000    0.05350   0.14580   0.13760   Biso      1.000     C          0.594762  
         C40       1.0000    0.78690   0.21710   0.15850   Biso      1.000     C          -0.148722           
         C41       1.0000    0.85590   0.90240   0.47160   Biso      1.000     C          0.688757  
         C42       1.0000    0.85310   0.82110   0.45943   Biso      1.000     C          -0.006701           
         C43       1.0000    0.82440   0.76870   0.49950   Biso      1.000     C          -0.145213           
         C44       1.0000    0.65390   0.20310   0.94760   Biso      1.000     C          0.027921  
         C45       1.0000    0.67380   0.22780   0.99960   Biso      1.000     C          -0.147498           
         C46       1.0000    0.66230   0.30100   0.01060   Biso      1.000     C          0.065139  
         C47       1.0000    0.60980   0.32500   0.92230   Biso      1.000     C          0.079445  
         C48       1.0000    0.62240   0.25320   0.90800   Biso      1.000     C          -0.131247           
         C49       1.0000    0.63010   0.14550   0.75000   Biso      1.000     C          0.576783  
         C50       1.0000    0.52910   0.21340   0.75000   Biso      1.000     C          0.047117  
         C51       1.0000    0.63280   0.28460   0.75000   Biso      1.000     C          -0.176396           
         C52       1.0000    0.54290   0.34570   0.75000   Biso      1.000     C          0.05596   
         C53       1.0000    0.25210   0.27210   0.75000   Biso      1.000     C          0.062091  
         C54       1.0000    0.33420   0.20840   0.75000   Biso      1.000     C          -0.152079           
         C55       1.0000    0.36990   0.85450   0.25000   Biso      1.000     C          0.576783  
         C56       1.0000    0.47090   0.78660   0.25000   Biso      1.000     C          0.047116  
         C57       1.0000    0.36720   0.71540   0.25000   Biso      1.000     C          -0.176398           
         C58       1.0000    0.45710   0.65430   0.25000   Biso      1.000     C          0.055958  
         C59       1.0000    0.74790   0.72790   0.25000   Biso      1.000     C          0.062089  
         C60       1.0000    0.66580   0.79160   0.25000   Biso      1.000     C          -0.152078           
         C61       1.0000    0.67250   0.12460   0.93290   Biso      1.000     C          0.571689  
         C62       1.0000    0.12120   0.20310   0.90780   Biso      1.000     C          -0.148196           
         C63       1.0000    0.12740   0.27780   0.89840   Biso      1.000     C          0.087828  
         C64       1.0000    0.17650   0.30510   0.98710   Biso      1.000     C          0.076059  
         C65       1.0000    0.82350   0.69490   0.48710   Biso      1.000     C          0.076062  
         C66       1.0000    0.87260   0.72220   0.39840   Biso      1.000     C          0.087826  
         C67       1.0000    0.87880   0.79690   0.40780   Biso      1.000     C          -0.148193           
         C68       1.0000    0.32750   0.87540   0.43290   Biso      1.000     C          0.571693  
         C69       1.0000    0.34610   0.79690   0.44760   Biso      1.000     C          0.02792   
         C70       1.0000    0.32620   0.77220   0.49960   Biso      1.000     C          -0.147499           
         C71       1.0000    0.33770   0.69900   0.51060   Biso      1.000     C          0.065139  
         C72       1.0000    0.39020   0.67500   0.42230   Biso      1.000     C          0.079444  
         C73       1.0000    0.17560   0.23130   0.50050   Biso      1.000     C          -0.145212           
         C74       1.0000    0.37760   0.74680   0.40800   Biso      1.000     C          -0.131246           
         C75       1.0000    0.02420   0.78300   0.85140   Biso      1.000     C          0.028266  
         C76       1.0000    0.21310   0.78290   0.84150   Biso      1.000     C          -0.148724           
         C77       1.0000    0.27590   0.71620   0.83220   Biso      1.000     C          0.073207  
         C78       1.0000    0.97690   0.65130   0.84330   Biso      1.000     C          0.08257   
         C79       1.0000    0.90390   0.71520   0.85280   Biso      1.000     C          -0.152589           
         C80       1.0000    0.14410   0.09760   0.97160   Biso      1.000     C          0.688755  
         C81       1.0000    0.14690   0.17890   0.95943   Biso      1.000     C          -0.0067   
         C82       1.0000    0.17560   0.23130   0.99950   Biso      1.000     C          -0.14521  
         C83       1.0000    0.94650   0.85420   0.86240   Biso      1.000     C          0.594761  
         C84       1.0000    0.17650   0.30510   0.51290   Biso      1.000     C          0.076064  
         Ce1       1.0000    0.77882   0.98380   0.59859   Biso      1.000     Ce          2.100033  
         Ce2       1.0000    0.22118   0.01620   0.09859   Biso      1.000     Ce          2.099998  
         Ce3       1.0000    0.22118   0.01620   0.40141   Biso      1.000     Ce          2.100015  
         Ce4       1.0000    0.77882   0.98380   0.90141   Biso      1.000     Ce          2.099992  
         Cu1       1.0000    0.74898   0.44639   0.31684   Biso      1.000     Cu          0.169685  
         Cu2       1.0000    0.76983   0.56614   0.25000   Biso      1.000     Cu          0.132485  
         Cu3       1.0000    0.23017   0.43386   0.75000   Biso      1.000     Cu          0.132489  
         Cu4       1.0000    0.37816   0.54422   0.00769   Biso      1.000     Cu          0.167993  
         Cu5       1.0000    0.17371   0.43896   0.91986   Biso      1.000     Cu          0.193451  
         Cu6       1.0000    0.25102   0.55361   0.81684   Biso      1.000     Cu          0.169682  
         Cu7       1.0000    0.82629   0.56104   0.41986   Biso      1.000     Cu          0.193453  
         Cu8       1.0000    0.62184   0.45578   0.50769   Biso      1.000     Cu          0.167999  
         Cu9       1.0000    0.62184   0.45578   0.99231   Biso      1.000     Cu          0.167998  
         Cu10      1.0000    0.82629   0.56104   0.08014   Biso      1.000     Cu          0.193447  
         Cu11      1.0000    0.74898   0.44639   0.18316   Biso      1.000     Cu          0.169682  
         Cu12      1.0000    0.37816   0.54422   0.49231   Biso      1.000     Cu          0.167996  
         Cu13      1.0000    0.17371   0.43896   0.58014   Biso      1.000     Cu          0.193457  
         Cu14      1.0000    0.25102   0.55361   0.68316   Biso      1.000     Cu          0.169685  
         H1        1.0000    0.67950   0.31770   0.45430   Biso      1.000     H          0.087398  
         H2        1.0000    0.22520   0.28700   0.13980   Biso      1.000     H          0.12789   
         H3        1.0000    0.10590   0.39390   0.15570   Biso      1.000     H          0.085256  
         H4        1.0000    0.59510   0.28280   0.17470   Biso      1.000     H          0.088243  
         H5        1.0000    0.70110   0.17270   0.15900   Biso      1.000     H          0.131721  
         H6        1.0000    0.61000   0.23840   0.62770   Biso      1.000     H          0.14122   
         H7        1.0000    0.58800   0.35820   0.60430   Biso      1.000     H          0.091754  
         H8        1.0000    0.80580   0.78280   0.96540   Biso      1.000     H          0.124589  
         H9        1.0000    0.69480   0.19550   0.47300   Biso      1.000     H          0.128246  
         H10       1.0000    0.29890   0.82730   0.65900   Biso      1.000     H          0.131723  
         H11       1.0000    0.11260   0.29340   0.63660   Biso      1.000     H          0.092778  
         H12       1.0000    0.19370   0.33990   0.48530   Biso      1.000     H          0.084711  
         H13       1.0000    0.19420   0.21720   0.46540   Biso      1.000     H          0.124587  
         H14       1.0000    0.77480   0.71300   0.63980   Biso      1.000     H          0.127891  
         H15       1.0000    0.89410   0.60610   0.65570   Biso      1.000     H          0.085257  
         H16       1.0000    0.40490   0.71720   0.67470   Biso      1.000     H          0.088243  
         H17       1.0000    0.80630   0.66010   0.98530   Biso      1.000     H          0.084711  
         H18       1.0000    0.74300   0.83800   0.25000   Biso      1.000     H          0.138582  
         H19       1.0000    0.09990   0.16920   0.62030   Biso      1.000     H          0.133499  
         H20       1.0000    0.88740   0.70660   0.13660   Biso      1.000     H          0.092779  
         H21       1.0000    0.88040   0.73330   0.25000   Biso      1.000     H          0.089616  
         H22       1.0000    0.30520   0.80450   0.97300   Biso      1.000     H          0.128248  
         H23       1.0000    0.19420   0.21720   0.03460   Biso      1.000     H          0.124588  
         H24       1.0000    0.19370   0.33990   0.01470   Biso      1.000     H          0.084711  
         H25       1.0000    0.11260   0.29340   0.86340   Biso      1.000     H          0.092778  
         H26       1.0000    0.09990   0.16920   0.87970   Biso      1.000     H          0.133498  
         H27       1.0000    0.69480   0.19550   0.02700   Biso      1.000     H          0.128246  
         H28       1.0000    0.67950   0.31770   0.04570   Biso      1.000     H          0.087398  
         H29       1.0000    0.58800   0.35820   0.89570   Biso      1.000     H          0.091754  
         H30       1.0000    0.61000   0.23840   0.87230   Biso      1.000     H          0.14122   
         H31       1.0000    0.76540   0.29120   0.75000   Biso      1.000     H          0.116001  
         H32       1.0000    0.61730   0.39270   0.75000   Biso      1.000     H          0.077612  
         H33       1.0000    0.11960   0.26670   0.75000   Biso      1.000     H          0.089617  
         H34       1.0000    0.25700   0.16200   0.75000   Biso      1.000     H          0.138585  
         H35       1.0000    0.23460   0.70880   0.25000   Biso      1.000     H          0.116     
         H36       1.0000    0.38270   0.60730   0.25000   Biso      1.000     H          0.077611  
         H37       1.0000    0.90010   0.83080   0.12030   Biso      1.000     H          0.1335    
         H38       1.0000    0.77480   0.71300   0.86020   Biso      1.000     H          0.127889  
         H39       1.0000    0.40490   0.71720   0.82530   Biso      1.000     H          0.088241  
         H40       1.0000    0.89410   0.60610   0.84430   Biso      1.000     H          0.085255  
         H41       1.0000    0.22520   0.28700   0.36020   Biso      1.000     H          0.127891  
         H42       1.0000    0.39000   0.76160   0.12770   Biso      1.000     H          0.141222  
         H43       1.0000    0.70110   0.17270   0.34100   Biso      1.000     H          0.131723  
         H44       1.0000    0.59510   0.28280   0.32530   Biso      1.000     H          0.088244  
         H45       1.0000    0.10590   0.39390   0.34430   Biso      1.000     H          0.085258  
         H46       1.0000    0.29890   0.82730   0.84100   Biso      1.000     H          0.131719  
         H47       1.0000    0.80580   0.78280   0.53460   Biso      1.000     H          0.124587  
         H48       1.0000    0.41200   0.64180   0.10430   Biso      1.000     H          0.091755  
         H49       1.0000    0.80630   0.66010   0.51470   Biso      1.000     H          0.084711  
         H50       1.0000    0.90010   0.83080   0.37970   Biso      1.000     H          0.133499  
         H51       1.0000    0.30520   0.80450   0.52700   Biso      1.000     H          0.128245  
         H52       1.0000    0.32050   0.68230   0.54570   Biso      1.000     H          0.087398  
         H53       1.0000    0.41200   0.64180   0.39570   Biso      1.000     H          0.091754  
         H54       1.0000    0.39000   0.76160   0.37230   Biso      1.000     H          0.14122   
         H55       1.0000    0.88740   0.70660   0.36340   Biso      1.000     H          0.092779  
         H56       1.0000    0.32050   0.68230   0.95430   Biso      1.000     H          0.087399  
         I1        1.0000    0.52523   0.55811   0.75000   Biso      1.000     I          -0.255386           
         I2        1.0000    0.50922   0.52958   0.91076   Biso      1.000     I          -0.275151           
         I3        1.0000    0.00000   0.50000   0.00000   Biso      1.000     I          -0.324845           
         I4        1.0000    0.00000   0.50000   0.50000   Biso      1.000     I          -0.324853           
         I5        1.0000    0.98170   0.44286   0.82985   Biso      1.000     I          -0.255672           
         I6        1.0000    0.47477   0.44189   0.25000   Biso      1.000     I          -0.255386           
         I7        1.0000    0.01830   0.55714   0.32985   Biso      1.000     I          -0.255672           
         I8        1.0000    0.49078   0.47042   0.08924   Biso      1.000     I          -0.275149           
         I9        1.0000    0.01830   0.55714   0.17015   Biso      1.000     I          -0.255671           
         I10       1.0000    0.50922   0.52958   0.58924   Biso      1.000     I          -0.275157           
         I11       1.0000    0.98170   0.44286   0.67015   Biso      1.000     I          -0.255678           
         I12       1.0000    0.49078   0.47042   0.41076   Biso      1.000     I          -0.275158           
         N1        1.0000    0.64800   0.65950   0.25000   Biso      1.000     N          -0.173677           
         N2        1.0000    0.35200   0.34050   0.75000   Biso      1.000     N          -0.173678           
         N3        1.0000    0.62750   0.34900   0.97272   Biso      1.000     N          -0.156346           
         N4        1.0000    0.16160   0.65070   0.83260   Biso      1.000     N          -0.156294           
         N5        1.0000    0.37250   0.65100   0.47272   Biso      1.000     N          -0.156344           
         N6        1.0000    0.84640   0.67120   0.43710   Biso      1.000     N          -0.166949           
         N7        1.0000    0.15360   0.32880   0.93710   Biso      1.000     N          -0.166951           
         N8        1.0000    0.37250   0.65100   0.02728   Biso      1.000     N          -0.156345           
         N9        1.0000    0.84640   0.67120   0.06290   Biso      1.000     N          -0.166949           
         N10       1.0000    0.83840   0.34930   0.16740   Biso      1.000     N          -0.156293           
         N11       1.0000    0.62750   0.34900   0.52728   Biso      1.000     N          -0.156346           
         N12       1.0000    0.15360   0.32880   0.56290   Biso      1.000     N          -0.166951           
         N13       1.0000    0.16160   0.65070   0.66740   Biso      1.000     N          -0.156292           
         N14       1.0000    0.83840   0.34930   0.33260   Biso      1.000     N          -0.156292           
         O1        1.0000    0.92070   0.94942   0.43698   Biso      1.000     O          -0.643749           
         O2        1.0000    0.30120   0.91989   0.46955   Biso      1.000     O          -0.638898           
         O3        1.0000    0.33350   0.89320   0.38448   Biso      1.000     O          -0.621298           
         O4        1.0000    0.05970   0.91280   0.87030   Biso      1.000     O          -0.619059           
         O5        1.0000    0.76930   0.85080   0.86410   Biso      1.000     O          -0.682234           
         O6        1.0000    0.69880   0.08011   0.96955   Biso      1.000     O          -0.638888           
         O7        1.0000    0.07930   0.05058   0.93698   Biso      1.000     O          -0.64375  
         O8        1.0000    0.52540   0.08360   0.75000   Biso      1.000     O          -0.688906           
         O9        1.0000    0.66650   0.10680   0.88448   Biso      1.000     O          -0.621295           
         O10       1.0000    0.80500   0.15530   0.75000   Biso      1.000     O          -0.644653           
         O11       1.0000    0.79080   0.91690   0.51652   Biso      1.000     O          -0.668448           
         O12       1.0000    0.20920   0.08310   0.01652   Biso      1.000     O          -0.668448           
         O13       1.0000    0.23070   0.14920   0.36410   Biso      1.000     O          -0.682231           
         O14       1.0000    0.07930   0.05058   0.56302   Biso      1.000     O          -0.643752           
         O15       1.0000    0.33350   0.89320   0.11552   Biso      1.000     O          -0.621292           
         O16       1.0000    0.30120   0.91989   0.03045   Biso      1.000     O          -0.638885           
         O17       1.0000    0.92070   0.94942   0.06302   Biso      1.000     O          -0.643748           
         O18       1.0000    0.79080   0.91690   0.98348   Biso      1.000     O          -0.668444           
         O19       1.0000    0.23070   0.14920   0.13590   Biso      1.000     O          -0.682232           
         O20       1.0000    0.94030   0.08720   0.12970   Biso      1.000     O          -0.619057           
         O21       1.0000    0.66650   0.10680   0.61552   Biso      1.000     O          -0.621296           
         O22       1.0000    0.69880   0.08011   0.53045   Biso      1.000     O          -0.638888           
         O23       1.0000    0.20920   0.08310   0.48348   Biso      1.000     O          -0.668446           
         O24       1.0000    0.76930   0.85080   0.63590   Biso      1.000     O          -0.682231           
         O25       1.0000    0.05970   0.91280   0.62970   Biso      1.000     O          -0.619057           
         O26       1.0000    0.19500   0.84470   0.25000   Biso      1.000     O          -0.644655           
         O27       1.0000    0.94030   0.08720   0.37030   Biso      1.000     O          -0.619056           
         O28       1.0000    0.47460   0.91640   0.25000   Biso      1.000     O          -0.688907 