
##########################################################################
#               Crystallographic Information Format file
#               Produced by PyCifRW module
#
#  This is a CIF file.  CIF has been adopted by the International
#  Union of Crystallography as the standard for data archiving and
#  transmission.
#
#  For information on this file format, follow the CIF links at
#  http://www.iucr.org
##########################################################################

data_image0

_cell_length_a                          9.155
_cell_length_b                          9.5454
_cell_length_c                          21.5679
_cell_angle_alpha                       90
_cell_angle_beta                        90
_cell_angle_gamma                       116.278
_symmetry_space_group_name_H-M          'P 1'
_symmetry_int_tables_number             1
loop_
  _symmetry_equiv_pos_as_xyz
         'x, y, z' 
loop_
  _atom_site_label
  _atom_site_occupancy
  _atom_site_fract_x
  _atom_site_fract_y
  _atom_site_fract_z
  _atom_site_thermal_displace_type
  _atom_site_B_iso_or_equiv
  _atom_site_type_symbol
  _atom_site_charge
         C1        1.0000    0.03280   0.57500   0.76700   Biso      1.000     C          0.020878  
         C2        1.0000    0.00980   0.52490   0.88010   Biso      1.000     C          0.60254   
         C3        1.0000    0.04560   0.48760   0.81560   Biso      1.000     C          -0.06688999999999999          
         C4        1.0000    0.08800   0.36850   0.80320   Biso      1.000     C          -0.042908           
         C5        1.0000    0.11310   0.33930   0.74260   Biso      1.000     C          -0.129825           
         C6        1.0000    0.09900   0.43280   0.69650   Biso      1.000     C          0.101049  
         C7        1.0000    0.99660   0.52280   0.53390   Biso      1.000     C          0.482242  
         C8        1.0000    0.51090   0.00710   0.53420   Biso      1.000     C          0.475109  
         C9        1.0000    0.95010   0.11460   0.58490   Biso      1.000     C          -0.051997           
         C10       1.0000    0.84040   0.99670   0.62030   Biso      1.000     C          -0.103146           
         C11       1.0000    0.87600   0.87710   0.63770   Biso      1.000     C          0.077165  
         C12       1.0000    0.11740   0.98310   0.58460   Biso      1.000     C          0.044486000000000005          
         C13       1.0000    0.09340   0.10940   0.56700   Biso      1.000     C          -0.068871           
         C14       1.0000    0.22360   0.23990   0.53040   Biso      1.000     C          0.618919  
         C15       1.0000    0.46720   0.42500   0.26700   Biso      1.000     C          0.020878999999999998          
         C16       1.0000    0.49020   0.47510   0.38010   Biso      1.000     C          0.602539  
         C17       1.0000    0.45440   0.51240   0.31560   Biso      1.000     C          -0.06688999999999999          
         C18       1.0000    0.41200   0.63150   0.30320   Biso      1.000     C          -0.042907           
         C19       1.0000    0.38690   0.66070   0.24260   Biso      1.000     C          -0.129825           
         C20       1.0000    0.40100   0.56720   0.19650   Biso      1.000     C          0.101049  
         C21       1.0000    0.91200   0.63150   0.19680   Biso      1.000     C          -0.042910000000000004         
         C22       1.0000    0.50340   0.47720   0.03390   Biso      1.000     C          0.482241  
         C23       1.0000    0.72360   0.23990   0.96960   Biso      1.000     C          0.618919  
         C24       1.0000    0.61740   0.98310   0.91540   Biso      1.000     C          0.044486000000000005          
         C25       1.0000    0.00340   0.47720   0.46610   Biso      1.000     C          0.482241  
         C26       1.0000    0.48910   0.99290   0.46580   Biso      1.000     C          0.47511000000000003           
         C27       1.0000    0.04990   0.88540   0.41510   Biso      1.000     C          -0.051997           
         C28       1.0000    0.15960   0.00330   0.37970   Biso      1.000     C          -0.103146           
         C29       1.0000    0.12400   0.12290   0.36230   Biso      1.000     C          0.077164  
         C30       1.0000    0.88260   0.01690   0.41540   Biso      1.000     C          0.044486000000000005          
         C31       1.0000    0.90660   0.89060   0.43300   Biso      1.000     C          -0.068871           
         C32       1.0000    0.77640   0.76010   0.46960   Biso      1.000     C          0.618919  
         C33       1.0000    0.53280   0.57500   0.73300   Biso      1.000     C          0.020878  
         C34       1.0000    0.50980   0.52490   0.61990   Biso      1.000     C          0.60254   
         C35       1.0000    0.54560   0.48760   0.68440   Biso      1.000     C          -0.06688999999999999          
         C36       1.0000    0.58800   0.36850   0.69680   Biso      1.000     C          -0.042908           
         C37       1.0000    0.61310   0.33930   0.75740   Biso      1.000     C          -0.129825           
         C38       1.0000    0.59900   0.43280   0.80350   Biso      1.000     C          0.101049  
         C39       1.0000    0.49660   0.52280   0.96610   Biso      1.000     C          0.482241  
         C40       1.0000    0.01090   0.00710   0.96580   Biso      1.000     C          0.475109  
         C41       1.0000    0.45010   0.11460   0.91510   Biso      1.000     C          -0.051997           
         C42       1.0000    0.34040   0.99670   0.87970   Biso      1.000     C          -0.103146           
         C43       1.0000    0.37600   0.87710   0.86230   Biso      1.000     C          0.077164  
         C44       1.0000    0.59340   0.10940   0.93300   Biso      1.000     C          -0.068872           
         C45       1.0000    0.98910   0.99290   0.03420   Biso      1.000     C          0.47511000000000003           
         C46       1.0000    0.54990   0.88540   0.08490   Biso      1.000     C          -0.051996           
         C47       1.0000    0.65960   0.00330   0.12030   Biso      1.000     C          -0.103147           
         C48       1.0000    0.96720   0.42500   0.23300   Biso      1.000     C          0.020877  
         C49       1.0000    0.99020   0.47510   0.11990   Biso      1.000     C          0.60254   
         C50       1.0000    0.95440   0.51240   0.18440   Biso      1.000     C          -0.066889           
         C51       1.0000    0.90100   0.56720   0.30350   Biso      1.000     C          0.101043  
         C52       1.0000    0.88690   0.66070   0.25740   Biso      1.000     C          -0.12981900000000002          
         C53       1.0000    0.62400   0.12290   0.13770   Biso      1.000     C          0.077165  
         C54       1.0000    0.38260   0.01690   0.08460   Biso      1.000     C          0.044486000000000005          
         C55       1.0000    0.40660   0.89060   0.06700   Biso      1.000     C          -0.068872           
         C56       1.0000    0.27640   0.76010   0.03040   Biso      1.000     C          0.618919  
         Cu1       1.0000    0.45125   0.30919   0.14575   Biso      1.000     Cu          0.336378  
         Cu2       1.0000    0.04875   0.69081   0.64575   Biso      1.000     Cu          0.336376  
         Cu3       1.0000    0.54875   0.69081   0.85425   Biso      1.000     Cu          0.33637399999999995           
         Cu4       1.0000    0.95125   0.30919   0.35425   Biso      1.000     Cu          0.336375  
         H1        1.0000    0.90050   0.69100   0.16470   Biso      1.000     H          0.13153199999999998           
         H2        1.0000    0.21220   0.97860   0.57180   Biso      1.000     H          0.10655899999999999           
         H3        1.0000    0.49770   0.34610   0.27570   Biso      1.000     H          0.099603  
         H4        1.0000    0.40050   0.69100   0.33530   Biso      1.000     H          0.13153199999999998           
         H5        1.0000    0.36080   0.74190   0.23290   Biso      1.000     H          0.12913   
         H6        1.0000    0.69750   0.19990   0.16360   Biso      1.000     H          0.078511  
         H7        1.0000    0.57070   0.80250   0.07290   Biso      1.000     H          0.12211   
         H8        1.0000    0.75670   0.00250   0.13250   Biso      1.000     H          0.135464  
         H9        1.0000    0.80250   0.80010   0.66360   Biso      1.000     H          0.078511  
         H10       1.0000    0.28780   0.02140   0.07180   Biso      1.000     H          0.10655899999999999           
         H11       1.0000    0.38410   0.58790   0.15570   Biso      1.000     H          0.097608  
         H12       1.0000    0.74330   0.99750   0.63250   Biso      1.000     H          0.135463  
         H13       1.0000    0.92930   0.19750   0.57290   Biso      1.000     H          0.12211   
         H14       1.0000    0.11590   0.41210   0.65570   Biso      1.000     H          0.097608  
         H15       1.0000    0.86080   0.74190   0.26710   Biso      1.000     H          0.129129  
         H16       1.0000    0.88410   0.58790   0.34430   Biso      1.000     H          0.097609  
         H17       1.0000    0.07070   0.80250   0.42710   Biso      1.000     H          0.12211   
         H18       1.0000    0.25670   0.00250   0.36750   Biso      1.000     H          0.135464  
         H19       1.0000    0.19750   0.19990   0.33640   Biso      1.000     H          0.078511  
         H20       1.0000    0.78780   0.02140   0.42820   Biso      1.000     H          0.10655899999999999           
         H21       1.0000    0.50230   0.65390   0.72430   Biso      1.000     H          0.099603  
         H22       1.0000    0.99770   0.34610   0.22430   Biso      1.000     H          0.099603  
         H23       1.0000    0.59950   0.30900   0.66470   Biso      1.000     H          0.13153299999999998           
         H24       1.0000    0.61590   0.41210   0.84430   Biso      1.000     H          0.097609  
         H25       1.0000    0.42930   0.19750   0.92710   Biso      1.000     H          0.12211   
         H26       1.0000    0.24330   0.99750   0.86750   Biso      1.000     H          0.135464  
         H27       1.0000    0.30250   0.80010   0.83640   Biso      1.000     H          0.078511  
         H28       1.0000    0.71220   0.97860   0.92820   Biso      1.000     H          0.10655899999999999           
         H29       1.0000    0.00230   0.65390   0.77570   Biso      1.000     H          0.099603  
         H30       1.0000    0.13920   0.25810   0.73290   Biso      1.000     H          0.12913   
         H31       1.0000    0.63920   0.25810   0.76710   Biso      1.000     H          0.12913   
         H32       1.0000    0.09950   0.30900   0.83530   Biso      1.000     H          0.13153299999999998           
         La1       1.0000    0.12122   0.35765   0.00938   Biso      1.000     La          1.823461  
         La2       1.0000    0.62122   0.35765   0.49062   Biso      1.000     La          1.823461  
         La3       1.0000    0.87878   0.64235   0.99062   Biso      1.000     La          1.823461  
         La4       1.0000    0.37878   0.64235   0.50938   Biso      1.000     La          1.823461  
         N1        1.0000    0.93780   0.44800   0.29270   Biso      1.000     N          -0.185928           
         N2        1.0000    0.99060   0.13610   0.38000   Biso      1.000     N          -0.192106           
         N3        1.0000    0.50940   0.86390   0.88000   Biso      1.000     N          -0.192106           
         N4        1.0000    0.56220   0.55200   0.79270   Biso      1.000     N          -0.185928           
         N5        1.0000    0.00940   0.86390   0.62000   Biso      1.000     N          -0.192107           
         N6        1.0000    0.43780   0.44800   0.20730   Biso      1.000     N          -0.18592899999999998          
         N7        1.0000    0.49060   0.13610   0.12000   Biso      1.000     N          -0.192106           
         N8        1.0000    0.06220   0.55200   0.70730   Biso      1.000     N          -0.18592899999999998          
         O1        1.0000    0.36140   0.46060   0.93940   Biso      1.000     O          -0.55132  
         O2        1.0000    0.83180   0.21520   0.99610   Biso      1.000     O          -0.61274  
         O3        1.0000    0.95020   0.88410   0.93380   Biso      1.000     O          -0.552822           
         O4        1.0000    0.08840   0.14350   0.94350   Biso      1.000     O          -0.574071           
         O5        1.0000    0.62730   0.61900   0.94190   Biso      1.000     O          -0.52998  
         O6        1.0000    0.44220   0.61410   0.61510   Biso      1.000     O          -0.5791430000000001           
         O7        1.0000    0.87270   0.38100   0.44190   Biso      1.000     O          -0.529981           
         O8        1.0000    0.78610   0.63270   0.46890   Biso      1.000     O          -0.6185689999999999           
         O9        1.0000    0.66820   0.78480   0.49610   Biso      1.000     O          -0.612739           
         O10       1.0000    0.54980   0.11590   0.43380   Biso      1.000     O          -0.552822           
         O11       1.0000    0.41160   0.85650   0.44350   Biso      1.000     O          -0.574071           
         O12       1.0000    0.71390   0.36730   0.96890   Biso      1.000     O          -0.6185689999999999           
         O13       1.0000    0.13860   0.53940   0.43940   Biso      1.000     O          -0.55132  
         O14       1.0000    0.54860   0.46880   0.57420   Biso      1.000     O          -0.622425           
         O15       1.0000    0.04860   0.46880   0.92580   Biso      1.000     O          -0.622425           
         O16       1.0000    0.45020   0.88410   0.56620   Biso      1.000     O          -0.552822           
         O17       1.0000    0.86140   0.46060   0.56060   Biso      1.000     O          -0.551319           
         O18       1.0000    0.12730   0.61900   0.55810   Biso      1.000     O          -0.529982           
         O19       1.0000    0.58840   0.14350   0.55650   Biso      1.000     O          -0.574071           
         O20       1.0000    0.05780   0.38590   0.11510   Biso      1.000     O          -0.5791430000000001           
         O21       1.0000    0.33180   0.21520   0.50390   Biso      1.000     O          -0.612739           
         O22       1.0000    0.21390   0.36730   0.53110   Biso      1.000     O          -0.6185689999999999           
         O23       1.0000    0.45140   0.53120   0.42580   Biso      1.000     O          -0.622425           
         O24       1.0000    0.55780   0.38590   0.38490   Biso      1.000     O          -0.5791430000000001           
         O25       1.0000    0.63860   0.53940   0.06060   Biso      1.000     O          -0.55132  
         O26       1.0000    0.37270   0.38100   0.05810   Biso      1.000     O          -0.529982           
         O27       1.0000    0.91160   0.85650   0.05650   Biso      1.000     O          -0.574071           
         O28       1.0000    0.04980   0.11590   0.06620   Biso      1.000     O          -0.552821           
         O29       1.0000    0.16820   0.78480   0.00390   Biso      1.000     O          -0.61274  
         O30       1.0000    0.28610   0.63270   0.03110   Biso      1.000     O          -0.6185689999999999           
         O31       1.0000    0.94220   0.61410   0.88490   Biso      1.000     O          -0.5791430000000001           
         O32       1.0000    0.95140   0.53120   0.07420   Biso      1.000     O          -0.622425 