
##########################################################################
#               Crystallographic Information Format file
#               Produced by PyCifRW module
#
#  This is a CIF file.  CIF has been adopted by the International
#  Union of Crystallography as the standard for data archiving and
#  transmission.
#
#  For information on this file format, follow the CIF links at
#  http://www.iucr.org
##########################################################################

data_image0

_cell_length_a                          10.5787
_cell_length_b                          10.5787
_cell_length_c                          15.828
_cell_angle_alpha                       90
_cell_angle_beta                        90
_cell_angle_gamma                       104.376
_symmetry_space_group_name_H-M          'P 1'
_symmetry_int_tables_number             1
loop_
  _symmetry_equiv_pos_as_xyz
         'x, y, z' 
loop_
  _atom_site_label
  _atom_site_occupancy
  _atom_site_fract_x
  _atom_site_fract_y
  _atom_site_fract_z
  _atom_site_thermal_displace_type
  _atom_site_B_iso_or_equiv
  _atom_site_type_symbol
  _atom_site_charge
         C1        1.0000    0.04750   0.61070   0.88480   Biso      1.000     C          -0.053734000000000004         
         C2        1.0000    0.57770   0.94930   0.18980   Biso      1.000     C          -0.11222599999999999          
         C3        1.0000    0.73250   0.10330   0.08920   Biso      1.000     C          -0.10388399999999999          
         C4        1.0000    0.84570   0.06010   0.12290   Biso      1.000     C          -0.014388           
         C5        1.0000    0.81550   0.97430   0.18840   Biso      1.000     C          -0.100521           
         C6        1.0000    0.67100   0.82560   0.29150   Biso      1.000     C          0.579576  
         C7        1.0000    0.49000   0.09860   0.08330   Biso      1.000     C          0.6039640000000001  
         C8        1.0000    0.97100   0.10400   0.07720   Biso      1.000     C          0.5903689999999999  
         C9        1.0000    0.91090   0.68450   0.78030   Biso      1.000     C          -0.019533000000000002         
         C10       1.0000    0.94930   0.57770   0.81020   Biso      1.000     C          -0.11221800000000001          
         C11       1.0000    0.10330   0.73250   0.91080   Biso      1.000     C          -0.103854           
         C12       1.0000    0.06010   0.84570   0.87710   Biso      1.000     C          -0.014391           
         C13       1.0000    0.68450   0.91090   0.21970   Biso      1.000     C          -0.019528999999999998         
         C14       1.0000    0.97430   0.81550   0.81160   Biso      1.000     C          -0.10052  
         C15       1.0000    0.09860   0.49000   0.91670   Biso      1.000     C          0.6039680000000001  
         C16       1.0000    0.10400   0.97100   0.92280   Biso      1.000     C          0.5903689999999999  
         C17       1.0000    0.08910   0.31550   0.28030   Biso      1.000     C          -0.019533000000000002         
         C18       1.0000    0.05070   0.42230   0.31020   Biso      1.000     C          -0.11221800000000001          
         C19       1.0000    0.95250   0.38930   0.38480   Biso      1.000     C          -0.053733           
         C20       1.0000    0.89670   0.26750   0.41080   Biso      1.000     C          -0.103854           
         C21       1.0000    0.93990   0.15430   0.37710   Biso      1.000     C          -0.014391           
         C22       1.0000    0.02570   0.18450   0.31160   Biso      1.000     C          -0.10052  
         C23       1.0000    0.17440   0.32900   0.20850   Biso      1.000     C          0.579577  
         C24       1.0000    0.90140   0.51000   0.41670   Biso      1.000     C          0.6039680000000001  
         C25       1.0000    0.89600   0.02900   0.42280   Biso      1.000     C          0.5903689999999999  
         C26       1.0000    0.82560   0.67100   0.70850   Biso      1.000     C          0.579576  
         C27       1.0000    0.02900   0.89600   0.57720   Biso      1.000     C          0.5903689999999999  
         C28       1.0000    0.61070   0.04750   0.11520   Biso      1.000     C          -0.053702           
         C29       1.0000    0.32900   0.17440   0.79150   Biso      1.000     C          0.579576  
         C30       1.0000    0.18450   0.02570   0.68840   Biso      1.000     C          -0.100525           
         C31       1.0000    0.15430   0.93990   0.62290   Biso      1.000     C          -0.014384000000000001         
         C32       1.0000    0.26750   0.89670   0.58920   Biso      1.000     C          -0.10388399999999999          
         C33       1.0000    0.38930   0.95250   0.61520   Biso      1.000     C          -0.053703           
         C34       1.0000    0.42230   0.05070   0.68980   Biso      1.000     C          -0.112225           
         C35       1.0000    0.31550   0.08910   0.71970   Biso      1.000     C          -0.019528           
         C36       1.0000    0.51000   0.90140   0.58330   Biso      1.000     C          0.603965  
         H1        1.0000    0.50570   0.08050   0.71200   Biso      1.000     H          0.14956   
         H2        1.0000    0.25390   0.82990   0.54940   Biso      1.000     H          0.136889  
         H3        1.0000    0.11460   0.04620   0.71630   Biso      1.000     H          0.122126  
         H4        1.0000    0.74610   0.17010   0.04940   Biso      1.000     H          0.136889  
         H5        1.0000    0.88540   0.95380   0.21630   Biso      1.000     H          0.122126  
         H6        1.0000    0.91950   0.49430   0.78800   Biso      1.000     H          0.14956   
         H7        1.0000    0.49430   0.91950   0.21200   Biso      1.000     H          0.149561  
         H8        1.0000    0.95380   0.88540   0.78370   Biso      1.000     H          0.122126  
         H9        1.0000    0.08050   0.50570   0.28800   Biso      1.000     H          0.14956   
         H10       1.0000    0.82990   0.25390   0.45060   Biso      1.000     H          0.13688699999999998           
         H11       1.0000    0.04620   0.11460   0.28370   Biso      1.000     H          0.122126  
         H12       1.0000    0.17010   0.74610   0.95060   Biso      1.000     H          0.13688699999999998           
         O1        1.0000    0.04686   0.05634   0.89258   Biso      1.000     O          -0.543322           
         O2        1.0000    0.05634   0.04686   0.10742   Biso      1.000     O          -0.543322           
         O3        1.0000    0.98887   0.19841   0.02910   Biso      1.000     O          -0.535748           
         O4        1.0000    0.75391   0.74909   0.69540   Biso      1.000     O          -0.550567           
         O5        1.0000    0.82449   0.56871   0.65767   Biso      1.000     O          -0.549146           
         O6        1.0000    0.06307   0.38293   0.88230   Biso      1.000     O          -0.467212           
         O7        1.0000    0.17087   0.52513   0.98140   Biso      1.000     O          -0.561998           
         O8        1.0000    0.82913   0.47487   0.48140   Biso      1.000     O          -0.5619970000000001           
         O9        1.0000    0.95314   0.94366   0.39258   Biso      1.000     O          -0.543322           
         O10       1.0000    0.93693   0.61707   0.38230   Biso      1.000     O          -0.467212           
         O11       1.0000    0.17551   0.43129   0.15767   Biso      1.000     O          -0.549146           
         O12       1.0000    0.24609   0.25091   0.19540   Biso      1.000     O          -0.5505680000000001           
         O13       1.0000    0.19841   0.98887   0.97090   Biso      1.000     O          -0.535748           
         O14       1.0000    0.52513   0.17087   0.01860   Biso      1.000     O          -0.5619970000000001           
         O15       1.0000    0.80159   0.01113   0.47090   Biso      1.000     O          -0.535748           
         O16       1.0000    0.38293   0.06307   0.11770   Biso      1.000     O          -0.467212           
         O17       1.0000    0.71680   0.71680   0.50000   Biso      1.000     O          -0.9887290000000001           
         O18       1.0000    0.74909   0.75391   0.30460   Biso      1.000     O          -0.5505680000000001           
         O19       1.0000    0.01113   0.80159   0.52910   Biso      1.000     O          -0.535748           
         O20       1.0000    0.94366   0.95314   0.60742   Biso      1.000     O          -0.543322           
         O21       1.0000    0.47487   0.82913   0.51860   Biso      1.000     O          -0.5619970000000001           
         O22       1.0000    0.61707   0.93693   0.61770   Biso      1.000     O          -0.467212           
         O23       1.0000    0.43129   0.17551   0.84233   Biso      1.000     O          -0.549146           
         O24       1.0000    0.25091   0.24609   0.80460   Biso      1.000     O          -0.5505680000000001           
         O25       1.0000    0.28320   0.28320   0.00000   Biso      1.000     O          -0.988728           
         O26       1.0000    0.56871   0.82449   0.34233   Biso      1.000     O          -0.549146           
         Zn1       1.0000    0.44207   0.27871   0.94336   Biso      1.000     Zn          0.950293  
         Zn2       1.0000    0.87114   0.76248   0.42379   Biso      1.000     Zn          0.973826  
         Zn3       1.0000    0.55793   0.72129   0.44336   Biso      1.000     Zn          0.9502940000000001  
         Zn4       1.0000    0.27871   0.44207   0.05664   Biso      1.000     Zn          0.9502950000000001  
         Zn5       1.0000    0.72129   0.55793   0.55664   Biso      1.000     Zn          0.9502950000000001  
         Zn6       1.0000    0.23752   0.12886   0.07621   Biso      1.000     Zn          0.973826  
         Zn7       1.0000    0.76248   0.87114   0.57621   Biso      1.000     Zn          0.973826  
         Zn8       1.0000    0.12886   0.23752   0.92379   Biso      1.000     Zn          0.973826 