
##########################################################################
#               Crystallographic Information Format file
#               Produced by PyCifRW module
#
#  This is a CIF file.  CIF has been adopted by the International
#  Union of Crystallography as the standard for data archiving and
#  transmission.
#
#  For information on this file format, follow the CIF links at
#  http://www.iucr.org
##########################################################################

data_image0

_cell_length_a                          18.837
_cell_length_b                          15.021
_cell_length_c                          14.95
_cell_angle_alpha                       90
_cell_angle_beta                        109.52
_cell_angle_gamma                       90
_symmetry_space_group_name_H-M          'P 1'
_symmetry_int_tables_number             1
loop_
  _symmetry_equiv_pos_as_xyz
         'x, y, z' 
loop_
  _atom_site_label
  _atom_site_occupancy
  _atom_site_fract_x
  _atom_site_fract_y
  _atom_site_fract_z
  _atom_site_thermal_displace_type
  _atom_site_B_iso_or_equiv
  _atom_site_type_symbol
  _atom_site_charge
         Ag1       1.0000    0.87054   0.88098   0.53916   Biso      1.000     Ag          0.257394  
         Ag2       1.0000    0.62555   0.16217   0.99419   Biso      1.000     Ag          0.27711199999999997           
         Ag3       1.0000    0.37445   0.66217   0.50581   Biso      1.000     Ag          0.277113  
         Ag4       1.0000    0.12946   0.38098   0.96084   Biso      1.000     Ag          0.257393  
         Ag5       1.0000    0.37445   0.83783   0.00581   Biso      1.000     Ag          0.27711199999999997           
         Ag6       1.0000    0.12946   0.11902   0.46084   Biso      1.000     Ag          0.257394  
         Ag7       1.0000    0.62555   0.33783   0.49419   Biso      1.000     Ag          0.27711199999999997           
         Ag8       1.0000    0.87054   0.61902   0.03916   Biso      1.000     Ag          0.257393  
         C1        1.0000    0.74860   0.63780   0.59640   Biso      1.000     C          -0.038668           
         C2        1.0000    0.32810   0.57300   0.11880   Biso      1.000     C          -0.025615           
         C3        1.0000    0.41990   0.50380   0.34180   Biso      1.000     C          -0.036736000000000005         
         C4        1.0000    0.12520   0.22330   0.81360   Biso      1.000     C          -0.012247           
         C5        1.0000    0.09880   0.54900   0.24130   Biso      1.000     C          -0.019356           
         C6        1.0000    0.27050   0.67430   0.18180   Biso      1.000     C          -0.026366000000000004         
         C7        1.0000    0.22660   0.29100   0.44370   Biso      1.000     C          0.019678  
         C8        1.0000    0.25140   0.36220   0.40360   Biso      1.000     C          -0.038667           
         C9        1.0000    0.49060   0.02430   0.88540   Biso      1.000     C          0.0032689999999999998         
         C10       1.0000    0.02780   0.91820   0.70220   Biso      1.000     C          -0.019922           
         C11       1.0000    0.45570   0.33260   0.36080   Biso      1.000     C          -0.018213999999999998         
         C12       1.0000    0.11650   0.56090   0.09890   Biso      1.000     C          -0.047869999999999996         
         C13       1.0000    0.34940   0.86010   0.56900   Biso      1.000     C          -0.006829000000000001         
         C14       1.0000    0.14980   0.34630   0.27040   Biso      1.000     C          -0.015809           
         C15       1.0000    0.04510   0.90560   0.56090   Biso      1.000     C          -0.004137           
         C16       1.0000    0.49060   0.47570   0.38540   Biso      1.000     C          0.0033    
         C17       1.0000    0.04510   0.59440   0.06090   Biso      1.000     C          -0.004129           
         C18       1.0000    0.32810   0.92700   0.61880   Biso      1.000     C          -0.025619           
         C19       1.0000    0.11650   0.93910   0.59890   Biso      1.000     C          -0.047863           
         C20       1.0000    0.22660   0.20900   0.94370   Biso      1.000     C          0.019677  
         C21       1.0000    0.14980   0.15370   0.77040   Biso      1.000     C          -0.015811000000000002         
         C22       1.0000    0.38170   0.14030   0.81420   Biso      1.000     C          -0.029769           
         C23       1.0000    0.50940   0.52430   0.61460   Biso      1.000     C          0.003268  
         C24       1.0000    0.25140   0.13780   0.90360   Biso      1.000     C          -0.038669           
         C25       1.0000    0.87480   0.72330   0.68640   Biso      1.000     C          -0.012245           
         C26       1.0000    0.12520   0.27670   0.31360   Biso      1.000     C          -0.012245           
         C27       1.0000    0.95490   0.40560   0.93910   Biso      1.000     C          -0.004138           
         C28       1.0000    0.97220   0.41820   0.79780   Biso      1.000     C          -0.019924           
         C29       1.0000    0.65060   0.36010   0.93100   Biso      1.000     C          -0.006827           
         C30       1.0000    0.09880   0.95100   0.74130   Biso      1.000     C          -0.019346000000000002         
         C31       1.0000    0.29070   0.73710   0.13100   Biso      1.000     C          0.0015119999999999999         
         C32       1.0000    0.34940   0.63990   0.06900   Biso      1.000     C          -0.006827           
         C33       1.0000    0.41990   0.99620   0.84180   Biso      1.000     C          -0.036703           
         C34       1.0000    0.02780   0.58180   0.20220   Biso      1.000     C          -0.01991  
         C35       1.0000    0.27050   0.82570   0.68180   Biso      1.000     C          -0.026368           
         C36       1.0000    0.29070   0.76290   0.63100   Biso      1.000     C          0.00151   
         C37       1.0000    0.38170   0.35970   0.31420   Biso      1.000     C          -0.029769           
         C38       1.0000    0.61830   0.64030   0.68580   Biso      1.000     C          -0.029771           
         C39       1.0000    0.50940   0.97570   0.11460   Biso      1.000     C          0.003268  
         C40       1.0000    0.67190   0.07300   0.38120   Biso      1.000     C          -0.025616000000000003         
         C41       1.0000    0.70930   0.26290   0.86900   Biso      1.000     C          0.0014869999999999998         
         C42       1.0000    0.58010   0.00380   0.15820   Biso      1.000     C          -0.036706           
         C43       1.0000    0.90120   0.04900   0.25870   Biso      1.000     C          -0.019357           
         C44       1.0000    0.85020   0.65370   0.72960   Biso      1.000     C          -0.015809           
         C45       1.0000    0.72950   0.17430   0.31820   Biso      1.000     C          -0.026366000000000004         
         C46       1.0000    0.87480   0.77670   0.18640   Biso      1.000     C          -0.012248           
         C47       1.0000    0.74860   0.86220   0.09640   Biso      1.000     C          -0.038671           
         C48       1.0000    0.77340   0.79100   0.05630   Biso      1.000     C          0.019676  
         C49       1.0000    0.54430   0.83260   0.13920   Biso      1.000     C          -0.018215000000000002         
         C50       1.0000    0.54430   0.66740   0.63920   Biso      1.000     C          -0.018216           
         C51       1.0000    0.88350   0.06090   0.40110   Biso      1.000     C          -0.047869           
         C52       1.0000    0.85020   0.84630   0.22960   Biso      1.000     C          -0.015813           
         C53       1.0000    0.77340   0.70900   0.55630   Biso      1.000     C          0.01968   
         C54       1.0000    0.61830   0.85970   0.18580   Biso      1.000     C          -0.029772000000000003         
         C55       1.0000    0.88350   0.43910   0.90110   Biso      1.000     C          -0.047866000000000006         
         C56       1.0000    0.95490   0.09440   0.43910   Biso      1.000     C          -0.00413  
         C57       1.0000    0.45570   0.16740   0.86080   Biso      1.000     C          -0.018212           
         C58       1.0000    0.67190   0.42700   0.88120   Biso      1.000     C          -0.025615           
         C59       1.0000    0.65060   0.13990   0.43100   Biso      1.000     C          -0.006827           
         C60       1.0000    0.58010   0.49620   0.65820   Biso      1.000     C          -0.036707           
         C61       1.0000    0.72950   0.32570   0.81820   Biso      1.000     C          -0.02634  
         C62       1.0000    0.97220   0.08180   0.29780   Biso      1.000     C          -0.019911           
         C63       1.0000    0.70930   0.23710   0.36900   Biso      1.000     C          0.0015119999999999999         
         C64       1.0000    0.90120   0.45100   0.75870   Biso      1.000     C          -0.019348           
         Cl1       1.0000    0.73163   0.08100   0.11670   Biso      1.000     Cl          -0.43264300000000006          
         Cl2       1.0000    0.76564   0.88960   0.38420   Biso      1.000     Cl          -0.41246800000000006          
         Cl3       1.0000    0.73163   0.41900   0.61670   Biso      1.000     Cl          -0.43264300000000006          
         Cl4       1.0000    0.76564   0.61040   0.88420   Biso      1.000     Cl          -0.41246700000000003          
         Cl5       1.0000    0.23436   0.11040   0.61580   Biso      1.000     Cl          -0.41246700000000003          
         Cl6       1.0000    0.26837   0.91900   0.88330   Biso      1.000     Cl          -0.43264300000000006          
         Cl7       1.0000    0.26837   0.58100   0.38330   Biso      1.000     Cl          -0.432642           
         Cl8       1.0000    0.23436   0.38960   0.11580   Biso      1.000     Cl          -0.41246800000000006          
         H1        1.0000    0.46680   0.22790   0.86660   Biso      1.000     H          0.096522  
         H2        1.0000    0.07970   0.25090   0.78110   Biso      1.000     H          0.097888  
         H3        1.0000    0.37820   0.87470   0.53130   Biso      1.000     H          0.094936  
         H4        1.0000    0.25530   0.22700   0.00460   Biso      1.000     H          0.09648   
         H5        1.0000    0.65820   0.48540   0.88830   Biso      1.000     H          0.09704700000000001           
         H6        1.0000    0.53320   0.72790   0.63340   Biso      1.000     H          0.096523  
         H7        1.0000    0.29490   0.10790   0.93930   Biso      1.000     H          0.098478  
         H8        1.0000    0.24340   0.80980   0.72120   Biso      1.000     H          0.10383099999999999           
         H9        1.0000    0.58990   0.43540   0.66340   Biso      1.000     H          0.089117  
         H10       1.0000    0.88400   0.46610   0.69460   Biso      1.000     H          0.101214  
         H11       1.0000    0.87950   0.63680   0.79070   Biso      1.000     H          0.096051  
         H12       1.0000    0.99870   0.91030   0.74110   Biso      1.000     H          0.094874  
         H13       1.0000    0.11600   0.96610   0.80540   Biso      1.000     H          0.101214  
         H14       1.0000    0.75660   0.30980   0.77880   Biso      1.000     H          0.10382899999999999           
         H15       1.0000    0.65510   0.68310   0.71140   Biso      1.000     H          0.101523  
         H16       1.0000    0.41010   0.93540   0.83660   Biso      1.000     H          0.089116  
         H17       1.0000    0.02840   0.88800   0.49760   Biso      1.000     H          0.099209  
         H18       1.0000    0.34180   0.98540   0.61170   Biso      1.000     H          0.097048  
         H19       1.0000    0.52800   0.98170   0.90890   Biso      1.000     H          0.097224  
         H20       1.0000    0.70510   0.60790   0.56070   Biso      1.000     H          0.098478  
         H21       1.0000    0.85400   0.44590   0.93960   Biso      1.000     H          0.087723  
         H22       1.0000    0.27580   0.70470   0.63660   Biso      1.000     H          0.093764  
         H23       1.0000    0.02840   0.61200   0.99760   Biso      1.000     H          0.099208  
         H24       1.0000    0.12050   0.13680   0.70930   Biso      1.000     H          0.096052  
         H25       1.0000    0.14600   0.94590   0.56040   Biso      1.000     H          0.08772200000000001           
         H26       1.0000    0.72420   0.29530   0.36340   Biso      1.000     H          0.093763  
         H27       1.0000    0.62180   0.12530   0.46870   Biso      1.000     H          0.094935  
         H28       1.0000    0.00130   0.08970   0.25890   Biso      1.000     H          0.094874  
         H29       1.0000    0.97160   0.11200   0.50240   Biso      1.000     H          0.099208  
         H30       1.0000    0.92030   0.74910   0.21890   Biso      1.000     H          0.097888  
         H31       1.0000    0.47200   0.01830   0.09110   Biso      1.000     H          0.097224  
         H32       1.0000    0.65820   0.01460   0.38830   Biso      1.000     H          0.09704700000000001           
         H33       1.0000    0.58990   0.06460   0.16340   Biso      1.000     H          0.089116  
         H34       1.0000    0.88400   0.03390   0.19460   Biso      1.000     H          0.101214  
         H35       1.0000    0.75660   0.19020   0.27880   Biso      1.000     H          0.10383099999999999           
         H36       1.0000    0.70510   0.89210   0.06070   Biso      1.000     H          0.098479  
         H37       1.0000    0.74470   0.77300   0.99540   Biso      1.000     H          0.096481  
         H38       1.0000    0.53320   0.77210   0.13340   Biso      1.000     H          0.096523  
         H39       1.0000    0.85400   0.05410   0.43960   Biso      1.000     H          0.087723  
         H40       1.0000    0.87950   0.86320   0.29070   Biso      1.000     H          0.096053  
         H41       1.0000    0.65510   0.81690   0.21140   Biso      1.000     H          0.101523  
         H42       1.0000    0.62180   0.37470   0.96870   Biso      1.000     H          0.094934  
         H43       1.0000    0.34490   0.31690   0.28860   Biso      1.000     H          0.101523  
         H44       1.0000    0.72420   0.20470   0.86340   Biso      1.000     H          0.093766  
         H45       1.0000    0.14600   0.55410   0.06040   Biso      1.000     H          0.087723  
         H46       1.0000    0.34490   0.18310   0.78860   Biso      1.000     H          0.101523  
         H47       1.0000    0.47200   0.48170   0.59110   Biso      1.000     H          0.097224  
         H48       1.0000    0.92030   0.75090   0.71890   Biso      1.000     H          0.097887  
         H49       1.0000    0.97160   0.38800   0.00240   Biso      1.000     H          0.099209  
         H50       1.0000    0.00130   0.41030   0.75890   Biso      1.000     H          0.094875  
         H51       1.0000    0.27580   0.79530   0.13660   Biso      1.000     H          0.093764  
         H52       1.0000    0.37820   0.62530   0.03130   Biso      1.000     H          0.094935  
         H53       1.0000    0.99870   0.58970   0.24110   Biso      1.000     H          0.094873  
         H54       1.0000    0.74470   0.72700   0.49540   Biso      1.000     H          0.09648   
         H55       1.0000    0.07970   0.24910   0.28110   Biso      1.000     H          0.097887  
         H56       1.0000    0.52800   0.51830   0.40890   Biso      1.000     H          0.097222  
         H57       1.0000    0.12050   0.36320   0.20930   Biso      1.000     H          0.096051  
         H58       1.0000    0.34180   0.51460   0.11170   Biso      1.000     H          0.09704700000000001           
         H59       1.0000    0.11600   0.53390   0.30540   Biso      1.000     H          0.101214  
         H60       1.0000    0.24340   0.69020   0.22120   Biso      1.000     H          0.10383099999999999           
         H61       1.0000    0.29490   0.39210   0.43930   Biso      1.000     H          0.098478  
         H62       1.0000    0.25530   0.27300   0.50460   Biso      1.000     H          0.09648   
         H63       1.0000    0.46680   0.27210   0.36660   Biso      1.000     H          0.096523  
         H64       1.0000    0.41010   0.56460   0.33660   Biso      1.000     H          0.08911799999999999           
         N1        1.0000    0.00190   0.39690   0.88920   Biso      1.000     N          -0.223602           
         N2        1.0000    0.85530   0.46220   0.80930   Biso      1.000     N          -0.159155           
         N3        1.0000    0.83510   0.75180   0.59970   Biso      1.000     N          -0.20219700000000002          
         N4        1.0000    0.78590   0.61000   0.68670   Biso      1.000     N          -0.14310699999999998          
         N5        1.0000    0.63760   0.55400   0.69480   Biso      1.000     N          -0.15634  
         N6        1.0000    0.48970   0.60910   0.60310   Biso      1.000     N          -0.221462           
         N7        1.0000    0.33000   0.72310   0.07350   Biso      1.000     N          -0.204792           
         N8        1.0000    0.67000   0.27690   0.92650   Biso      1.000     N          -0.204789           
         N9        1.0000    0.33000   0.77690   0.57350   Biso      1.000     N          -0.204789           
         N10       1.0000    0.48970   0.89090   0.10310   Biso      1.000     N          -0.22146300000000002          
         N11       1.0000    0.63760   0.94600   0.19480   Biso      1.000     N          -0.15634  
         N12       1.0000    0.78590   0.89000   0.18670   Biso      1.000     N          -0.14310499999999998          
         N13       1.0000    0.83510   0.74820   0.09970   Biso      1.000     N          -0.202194           
         N14       1.0000    0.85530   0.03780   0.30930   Biso      1.000     N          -0.159155           
         N15       1.0000    0.00190   0.10310   0.38920   Biso      1.000     N          -0.223606           
         N16       1.0000    0.71100   0.08910   0.32380   Biso      1.000     N          -0.150523           
         N17       1.0000    0.67000   0.22310   0.42650   Biso      1.000     N          -0.204791           
         N18       1.0000    0.51030   0.39090   0.39690   Biso      1.000     N          -0.221467           
         N19       1.0000    0.36240   0.44600   0.30520   Biso      1.000     N          -0.156338           
         N20       1.0000    0.21410   0.39000   0.31330   Biso      1.000     N          -0.14310799999999999          
         N21       1.0000    0.16490   0.24820   0.40030   Biso      1.000     N          -0.20219700000000002          
         N22       1.0000    0.99810   0.60310   0.11080   Biso      1.000     N          -0.223606           
         N23       1.0000    0.28900   0.58910   0.17620   Biso      1.000     N          -0.150523           
         N24       1.0000    0.71100   0.41090   0.82380   Biso      1.000     N          -0.150525           
         N25       1.0000    0.51030   0.10910   0.89690   Biso      1.000     N          -0.22146500000000002          
         N26       1.0000    0.36240   0.05400   0.80520   Biso      1.000     N          -0.156342           
         N27       1.0000    0.21410   0.11000   0.81330   Biso      1.000     N          -0.14310599999999998          
         N28       1.0000    0.16490   0.25180   0.90030   Biso      1.000     N          -0.202195           
         N29       1.0000    0.14470   0.96220   0.69070   Biso      1.000     N          -0.159156           
         N30       1.0000    0.99810   0.89690   0.61080   Biso      1.000     N          -0.223604           
         N31       1.0000    0.28900   0.91090   0.67620   Biso      1.000     N          -0.15052000000000001          
         N32       1.0000    0.14470   0.53780   0.19070   Biso      1.000     N          -0.159154           
         Ru1       1.0000    0.74738   0.51067   0.75290   Biso      1.000     Ru          0.502938  
         Ru2       1.0000    0.25262   0.48933   0.24710   Biso      1.000     Ru          0.502939  
         Ru3       1.0000    0.25262   0.01067   0.74710   Biso      1.000     Ru          0.502938  
         Ru4       1.0000    0.74738   0.98933   0.25290   Biso      1.000     Ru          0.502941 