
##########################################################################
#               Crystallographic Information Format file
#               Produced by PyCifRW module
#
#  This is a CIF file.  CIF has been adopted by the International
#  Union of Crystallography as the standard for data archiving and
#  transmission.
#
#  For information on this file format, follow the CIF links at
#  http://www.iucr.org
##########################################################################

data_image0

_cell_length_a                          7.181
_cell_length_b                          11.3511
_cell_length_c                          11.3511
_cell_angle_alpha                       66.3221
_cell_angle_beta                        71.56
_cell_angle_gamma                       71.5599
_symmetry_space_group_name_H-M          'P 1'
_symmetry_int_tables_number             1
loop_
  _symmetry_equiv_pos_as_xyz
         'x, y, z' 
loop_
  _atom_site_label
  _atom_site_occupancy
  _atom_site_fract_x
  _atom_site_fract_y
  _atom_site_fract_z
  _atom_site_thermal_displace_type
  _atom_site_B_iso_or_equiv
  _atom_site_type_symbol
  _atom_site_charge
         Br1       1.0000    0.99303   0.90526   0.59474   Biso      1.000     Br          -0.533586           
         Br2       1.0000    0.49303   0.09474   0.40526   Biso      1.000     Br          -0.533587           
         C1        1.0000    0.34460   0.94000   0.16700   Biso      1.000     C          0.236994  
         C2        1.0000    0.04850   0.66910   0.35750   Biso      1.000     C          -0.522598           
         C3        1.0000    0.80720   0.43180   0.49840   Biso      1.000     C          -0.166455           
         C4        1.0000    0.95160   0.33300   0.56000   Biso      1.000     C          0.237252  
         C5        1.0000    0.73730   0.37480   0.43540   Biso      1.000     C          0.22723800000000002           
         C6        1.0000    0.58780   0.43630   0.35090   Biso      1.000     C          -0.525363           
         C7        1.0000    0.07510   0.33090   0.64250   Biso      1.000     C          -0.5232939999999999           
         C8        1.0000    0.23740   0.00160   0.06820   Biso      1.000     C          -0.166578           
         C9        1.0000    0.84460   0.66700   0.44000   Biso      1.000     C          0.23699699999999999           
         C10       1.0000    0.87500   0.14910   0.06370   Biso      1.000     C          -0.526644           
         C11       1.0000    0.37500   0.56370   0.64910   Biso      1.000     C          -0.5266430000000001           
         C12       1.0000    0.54850   0.85750   0.16910   Biso      1.000     C          -0.522594           
         C13       1.0000    0.30720   0.99840   0.93180   Biso      1.000     C          -0.166456           
         C14       1.0000    0.45160   0.06000   0.83300   Biso      1.000     C          0.23725300000000002           
         C15       1.0000    0.23730   0.93540   0.87480   Biso      1.000     C          0.22724299999999997           
         C16       1.0000    0.08780   0.85090   0.93630   Biso      1.000     C          -0.525365           
         C17       1.0000    0.57510   0.14250   0.83090   Biso      1.000     C          -0.523306           
         C18       1.0000    0.73740   0.56820   0.50160   Biso      1.000     C          -0.166578           
         C19       1.0000    0.04750   0.06460   0.12520   Biso      1.000     C          0.22415900000000002           
         C20       1.0000    0.54750   0.62520   0.56460   Biso      1.000     C          0.224158  
         Cu1       1.0000    0.34052   0.88889   0.61111   Biso      1.000     Cu          0.23491700000000001           
         Cu2       1.0000    0.84052   0.11111   0.38889   Biso      1.000     Cu          0.234913  
         H1        1.0000    0.48910   0.21950   0.85050   Biso      1.000     H          0.175217  
         H2        1.0000    0.66110   0.16880   0.74500   Biso      1.000     H          0.17468399999999998           
         H3        1.0000    0.65570   0.09340   0.89560   Biso      1.000     H          0.169098  
         H4        1.0000    0.13370   0.77510   0.00670   Biso      1.000     H          0.171253  
         H5        1.0000    0.75390   0.84810   0.44130   Biso      1.000     H          0.27810100000000004           
         H6        1.0000    0.26620   0.62850   0.67710   Biso      1.000     H          0.171731  
         H7        1.0000    0.41550   0.49330   0.72490   Biso      1.000     H          0.169481  
         H8        1.0000    0.33200   0.52910   0.59990   Biso      1.000     H          0.159853  
         H9        1.0000    0.07490   0.75500   0.33120   Biso      1.000     H          0.173992  
         H10       1.0000    0.05910   0.64950   0.28050   Biso      1.000     H          0.174853  
         H11       1.0000    0.14470   0.60440   0.40660   Biso      1.000     H          0.169629  
         H12       1.0000    0.04330   0.15190   0.55870   Biso      1.000     H          0.27726100000000004           
         H13       1.0000    0.96100   0.90010   0.97090   Biso      1.000     H          0.157851  
         H14       1.0000    0.63370   0.50670   0.27510   Biso      1.000     H          0.171256  
         H15       1.0000    0.46100   0.47090   0.40010   Biso      1.000     H          0.157865  
         H16       1.0000    0.16110   0.24500   0.66880   Biso      1.000     H          0.17468   
         H17       1.0000    0.57180   0.37150   0.32290   Biso      1.000     H          0.170646  
         H18       1.0000    0.15570   0.39560   0.59340   Biso      1.000     H          0.169096  
         H19       1.0000    0.25390   0.94130   0.34810   Biso      1.000     H          0.27810100000000004           
         H20       1.0000    0.76620   0.17710   0.12850   Biso      1.000     H          0.171734  
         H21       1.0000    0.91550   0.22490   0.99330   Biso      1.000     H          0.16948   
         H22       1.0000    0.83200   0.09990   0.02910   Biso      1.000     H          0.159853  
         H23       1.0000    0.57490   0.83120   0.25500   Biso      1.000     H          0.173996  
         H24       1.0000    0.55910   0.78050   0.14950   Biso      1.000     H          0.174852  
         H25       1.0000    0.64470   0.90660   0.10440   Biso      1.000     H          0.169629  
         H26       1.0000    0.54330   0.05870   0.65190   Biso      1.000     H          0.277262  
         H27       1.0000    0.98910   0.35050   0.71950   Biso      1.000     H          0.175216  
         H28       1.0000    0.07180   0.82290   0.87150   Biso      1.000     H          0.17066800000000001           
         N1        1.0000    0.22140   0.96850   0.27330   Biso      1.000     N          -0.199701           
         N2        1.0000    0.04106   0.04444   0.25024   Biso      1.000     N          -0.194306           
         N3        1.0000    0.96320   0.22670   0.53150   Biso      1.000     N          -0.19754000000000002          
         N4        1.0000    0.33574   0.95556   0.74976   Biso      1.000     N          -0.198191           
         N5        1.0000    0.72140   0.77330   0.46850   Biso      1.000     N          -0.199694           
         N6        1.0000    0.54106   0.75024   0.54444   Biso      1.000     N          -0.19430999999999998          
         N7        1.0000    0.83574   0.24976   0.45556   Biso      1.000     N          -0.198163           
         N8        1.0000    0.46320   0.03150   0.72670   Biso      1.000     N          -0.197515 