
##########################################################################
#               Crystallographic Information Format file
#               Produced by PyCifRW module
#
#  This is a CIF file.  CIF has been adopted by the International
#  Union of Crystallography as the standard for data archiving and
#  transmission.
#
#  For information on this file format, follow the CIF links at
#  http://www.iucr.org
##########################################################################

data_image0

_cell_length_a                          4.7308
_cell_length_b                          7.7734
_cell_length_c                          8.4118
_cell_angle_alpha                       62.4803
_cell_angle_beta                        89.9446
_cell_angle_gamma                       89.8801
_symmetry_space_group_name_H-M          'P 1'
_symmetry_int_tables_number             1
loop_
  _symmetry_equiv_pos_as_xyz
         'x, y, z' 
loop_
  _atom_site_label
  _atom_site_occupancy
  _atom_site_fract_x
  _atom_site_fract_y
  _atom_site_fract_z
  _atom_site_thermal_displace_type
  _atom_site_B_iso_or_equiv
  _atom_site_type_symbol
  _atom_site_charge
         C1        1.0000    0.49900   0.03000   0.55200   Biso      1.000     C          0.923816  
         C2        1.0000    0.49900   0.58200   0.44800   Biso      1.000     C          0.924321  
         C3        1.0000    0.99500   0.90000   0.00000   Biso      1.000     C          0.545193  
         C4        1.0000    0.99700   0.09700   0.00000   Biso      1.000     C          0.540408  
         Er1       1.0000    0.00200   0.20840   0.58660   Biso      1.000     Er          2.237629  
         Er2       1.0000    0.00200   0.79500   0.41340   Biso      1.000     Er          2.237474  
         O1        1.0000    0.50000   0.12630   0.64160   Biso      1.000     O          -0.814388           
         O2        1.0000    0.01400   0.90300   0.85200   Biso      1.000     O          -0.620912           
         O3        1.0000    0.01400   0.24500   0.84800   Biso      1.000     O          -0.625636           
         O4        1.0000    0.26800   0.99400   0.50400   Biso      1.000     O          -0.791656           
         O5        1.0000    0.74700   0.99300   0.50600   Biso      1.000     O          -0.851858           
         O6        1.0000    0.50000   0.76790   0.35840   Biso      1.000     O          -0.814379           
         O7        1.0000    0.01400   0.75500   0.14800   Biso      1.000     O          -0.62093  
         O8        1.0000    0.01400   0.09300   0.15200   Biso      1.000     O          -0.6251220000000001           
         O9        1.0000    0.26800   0.49800   0.49600   Biso      1.000     O          -0.792136           
         O10       1.0000    0.74700   0.49900   0.49400   Biso      1.000     O          -0.851824 