
##########################################################################
#               Crystallographic Information Format file
#               Produced by PyCifRW module
#
#  This is a CIF file.  CIF has been adopted by the International
#  Union of Crystallography as the standard for data archiving and
#  transmission.
#
#  For information on this file format, follow the CIF links at
#  http://www.iucr.org
##########################################################################

data_image0

_cell_length_a                          16.0853
_cell_length_b                          17.4169
_cell_length_c                          19.3667
_cell_angle_alpha                       69.09
_cell_angle_beta                        65.463
_cell_angle_gamma                       62.4985
_symmetry_space_group_name_H-M          'P 1'
_symmetry_int_tables_number             1
loop_
  _symmetry_equiv_pos_as_xyz
         'x, y, z' 
loop_
  _atom_site_label
  _atom_site_occupancy
  _atom_site_fract_x
  _atom_site_fract_y
  _atom_site_fract_z
  _atom_site_thermal_displace_type
  _atom_site_B_iso_or_equiv
  _atom_site_type_symbol
  _atom_site_charge
         C1        1.0000    0.81060   0.55800   0.83240   Biso      1.000     C          -0.073859           
         C2        1.0000    0.28900   0.83010   0.59170   Biso      1.000     C          -0.076469           
         C3        1.0000    0.21000   0.80230   0.62610   Biso      1.000     C          -0.204542           
         C4        1.0000    0.12730   0.84550   0.67850   Biso      1.000     C          0.282023  
         C5        1.0000    0.80860   0.96590   0.79050   Biso      1.000     C          -0.083666           
         C6        1.0000    0.90500   0.93310   0.74090   Biso      1.000     C          -0.227394           
         C7        1.0000    0.96430   0.84740   0.75900   Biso      1.000     C          0.281372  
         C8        1.0000    0.93190   0.79290   0.82650   Biso      1.000     C          -0.195241           
         C9        1.0000    0.83860   0.82430   0.87610   Biso      1.000     C          -0.074865           
         C10       1.0000    0.77490   0.91120   0.85880   Biso      1.000     C          -0.048735           
         C11       1.0000    0.67280   0.94480   0.90980   Biso      1.000     C          0.604879  
         C12       1.0000    0.87610   0.56620   0.92740   Biso      1.000     C          0.594535  
         C13       1.0000    0.28450   0.90120   0.61260   Biso      1.000     C          -0.053168           
         C14       1.0000    0.79020   0.41080   0.39180   Biso      1.000     C          -0.054828           
         C15       1.0000    0.95100   0.30200   0.39500   Biso      1.000     C          -0.22894  
         C16       1.0000    0.99030   0.34030   0.31750   Biso      1.000     C          0.282885  
         C17       1.0000    0.93070   0.41490   0.27990   Biso      1.000     C          -0.213738           
         C18       1.0000    0.83110   0.44860   0.31660   Biso      1.000     C          -0.072935           
         C19       1.0000    0.15960   0.25770   0.31250   Biso      1.000     C          0.279526  
         C20       1.0000    0.16280   0.28250   0.37190   Biso      1.000     C          -0.221157           
         C21       1.0000    0.23820   0.23100   0.40320   Biso      1.000     C          -0.072935           
         C22       1.0000    0.31340   0.15670   0.37530   Biso      1.000     C          -0.047552           
         C23       1.0000    0.31130   0.13580   0.31480   Biso      1.000     C          -0.068946           
         C24       1.0000    0.23340   0.18490   0.28310   Biso      1.000     C          -0.205926           
         C25       1.0000    0.38990   0.09950   0.41550   Biso      1.000     C          0.592952  
         C26       1.0000    0.85240   0.33710   0.43030   Biso      1.000     C          -0.077783           
         C27       1.0000    0.68220   0.44570   0.43070   Biso      1.000     C          0.595831  
         C28       1.0000    0.20100   0.94200   0.66760   Biso      1.000     C          -0.070715           
         C29       1.0000    0.36970   0.93380   0.57260   Biso      1.000     C          0.59032   
         C30       1.0000    0.71080   0.66990   0.90830   Biso      1.000     C          -0.078623           
         C31       1.0000    0.63840   0.69770   0.87390   Biso      1.000     C          -0.208767           
         C32       1.0000    0.65130   0.65450   0.82150   Biso      1.000     C          0.286306  
         C33       1.0000    0.56500   0.53410   0.70950   Biso      1.000     C          -0.08012  
         C34       1.0000    0.57900   0.56690   0.75910   Biso      1.000     C          -0.227314           
         C35       1.0000    0.57070   0.65260   0.74100   Biso      1.000     C          0.282332  
         C36       1.0000    0.55130   0.70710   0.67350   Biso      1.000     C          -0.200291           
         C37       1.0000    0.53900   0.67570   0.62390   Biso      1.000     C          -0.076526           
         C38       1.0000    0.54490   0.58880   0.64120   Biso      1.000     C          -0.047746           
         C39       1.0000    0.52740   0.55520   0.59020   Biso      1.000     C          0.60456   
         C40       1.0000    0.55860   0.05430   0.06930   Biso      1.000     C          0.597589  
         C41       1.0000    0.12300   0.91340   0.70120   Biso      1.000     C          -0.234532           
         C42       1.0000    0.90490   0.40050   0.08450   Biso      1.000     C          0.594346  
         C43       1.0000    0.76190   0.36420   0.18520   Biso      1.000     C          -0.069346           
         C44       1.0000    0.84540   0.34330   0.12470   Biso      1.000     C          -0.047038           
         C45       1.0000    0.87240   0.26900   0.09680   Biso      1.000     C          -0.075029           
         C46       1.0000    0.81720   0.21750   0.12810   Biso      1.000     C          -0.219219           
         C47       1.0000    0.72980   0.24230   0.18750   Biso      1.000     C          0.27448   
         C48       1.0000    0.59630   0.05140   0.18340   Biso      1.000     C          -0.067692           
         C49       1.0000    0.62550   0.08510   0.22010   Biso      1.000     C          -0.217064           
         C50       1.0000    0.64810   0.15970   0.18250   Biso      1.000     C          0.283809  
         C51       1.0000    0.64800   0.19800   0.10500   Biso      1.000     C          -0.231292           
         C52       1.0000    0.61980   0.16290   0.06970   Biso      1.000     C          -0.075393           
         C53       1.0000    0.59280   0.08920   0.10820   Biso      1.000     C          -0.058901           
         C54       1.0000    0.70140   0.31510   0.21690   Biso      1.000     C          -0.202412           
         C55       1.0000    0.32720   0.05520   0.09020   Biso      1.000     C          0.604879  
         C56       1.0000    0.22510   0.08880   0.14120   Biso      1.000     C          -0.048713           
         C57       1.0000    0.16140   0.17570   0.12390   Biso      1.000     C          -0.074849           
         C58       1.0000    0.42930   0.34740   0.25900   Biso      1.000     C          0.282321  
         C59       1.0000    0.42100   0.43310   0.24090   Biso      1.000     C          -0.227303           
         C60       1.0000    0.43500   0.46590   0.29050   Biso      1.000     C          -0.080121           
         C61       1.0000    0.34870   0.34550   0.17850   Biso      1.000     C          0.2863    
         C62       1.0000    0.36160   0.30230   0.12610   Biso      1.000     C          -0.208759           
         C63       1.0000    0.28920   0.33010   0.09170   Biso      1.000     C          -0.078622           
         C64       1.0000    0.20170   0.40120   0.11260   Biso      1.000     C          -0.050966           
         C65       1.0000    0.18940   0.44200   0.16760   Biso      1.000     C          -0.073861           
         C66       1.0000    0.26240   0.41340   0.20120   Biso      1.000     C          -0.23857  
         C67       1.0000    0.12390   0.43380   0.07260   Biso      1.000     C          0.594535  
         C68       1.0000    0.20980   0.58920   0.60820   Biso      1.000     C          -0.054828           
         C69       1.0000    0.44870   0.29290   0.32650   Biso      1.000     C          -0.20029  
         C70       1.0000    0.14760   0.66290   0.56970   Biso      1.000     C          -0.077791           
         C71       1.0000    0.00970   0.65970   0.68250   Biso      1.000     C          0.28288   
         C72       1.0000    0.06930   0.58510   0.72010   Biso      1.000     C          -0.21374  
         C73       1.0000    0.16890   0.55140   0.68340   Biso      1.000     C          -0.072937           
         C74       1.0000    0.84040   0.74230   0.68750   Biso      1.000     C          0.279525  
         C75       1.0000    0.83720   0.71750   0.62810   Biso      1.000     C          -0.221156           
         C76       1.0000    0.76180   0.76900   0.59680   Biso      1.000     C          -0.072936           
         C77       1.0000    0.68660   0.84330   0.62470   Biso      1.000     C          -0.047552           
         C78       1.0000    0.68870   0.86420   0.68520   Biso      1.000     C          -0.068946           
         C79       1.0000    0.76660   0.81510   0.71690   Biso      1.000     C          -0.205932           
         C80       1.0000    0.61010   0.90050   0.58450   Biso      1.000     C          0.592952  
         C81       1.0000    0.31780   0.55430   0.56930   Biso      1.000     C          0.595831  
         C82       1.0000    0.04900   0.69800   0.60500   Biso      1.000     C          -0.22894  
         C83       1.0000    0.46100   0.32430   0.37610   Biso      1.000     C          -0.076526           
         C84       1.0000    0.45510   0.41120   0.35880   Biso      1.000     C          -0.047746           
         C85       1.0000    0.47260   0.44480   0.40980   Biso      1.000     C          0.60456   
         C86       1.0000    0.06810   0.20710   0.17350   Biso      1.000     C          -0.195186           
         C87       1.0000    0.03570   0.15260   0.24100   Biso      1.000     C          0.281317  
         C88       1.0000    0.09500   0.06690   0.25910   Biso      1.000     C          -0.227507           
         C89       1.0000    0.19140   0.03410   0.20950   Biso      1.000     C          -0.083593           
         C90       1.0000    0.87270   0.15450   0.32150   Biso      1.000     C          0.281968  
         C91       1.0000    0.79000   0.19770   0.37390   Biso      1.000     C          -0.204368           
         C92       1.0000    0.71100   0.16990   0.40830   Biso      1.000     C          -0.076408           
         C93       1.0000    0.71550   0.09880   0.38740   Biso      1.000     C          -0.05301  
         C94       1.0000    0.79900   0.05800   0.33240   Biso      1.000     C          -0.07076  
         C95       1.0000    0.87700   0.08660   0.29880   Biso      1.000     C          -0.236875           
         C96       1.0000    0.63030   0.06620   0.42740   Biso      1.000     C          0.590334  
         C97       1.0000    0.40720   0.91080   0.89180   Biso      1.000     C          -0.058903           
         C98       1.0000    0.38020   0.83710   0.93030   Biso      1.000     C          -0.075409           
         C99       1.0000    0.35200   0.80200   0.89500   Biso      1.000     C          -0.231274           
         C100      1.0000    0.35190   0.84030   0.81750   Biso      1.000     C          0.283804  
         C101      1.0000    0.37450   0.91490   0.77990   Biso      1.000     C          -0.217069           
         C102      1.0000    0.40370   0.94860   0.81660   Biso      1.000     C          -0.067686           
         C103      1.0000    0.27020   0.75770   0.81250   Biso      1.000     C          0.274453  
         C104      1.0000    0.18280   0.78250   0.87190   Biso      1.000     C          -0.219279           
         C105      1.0000    0.12760   0.73100   0.90320   Biso      1.000     C          -0.075025           
         C106      1.0000    0.15460   0.65670   0.87530   Biso      1.000     C          -0.047053           
         C107      1.0000    0.23810   0.63580   0.81480   Biso      1.000     C          -0.069338           
         C108      1.0000    0.29860   0.68490   0.78310   Biso      1.000     C          -0.20242  
         C109      1.0000    0.09510   0.59950   0.91550   Biso      1.000     C          0.594348  
         C110      1.0000    0.44140   0.94570   0.93070   Biso      1.000     C          0.597589  
         C111      1.0000    0.79830   0.59880   0.88740   Biso      1.000     C          -0.050967           
         C112      1.0000    0.73760   0.58660   0.79880   Biso      1.000     C          -0.23857  
         Cu1       1.0000    0.51670   0.92428   0.04978   Biso      1.000     Cu          0.868395  
         Cu2       1.0000    0.45680   0.05576   0.54756   Biso      1.000     Cu          0.860035  
         Cu3       1.0000    0.49076   0.57572   0.45022   Biso      1.000     Cu          0.86892   
         Cu4       1.0000    0.06012   0.44424   0.95244   Biso      1.000     Cu          0.85967   
         Cu5       1.0000    0.48330   0.07572   0.95022   Biso      1.000     Cu          0.868402  
         Cu6       1.0000    0.54320   0.94424   0.45244   Biso      1.000     Cu          0.860028  
         Cu7       1.0000    0.50924   0.42428   0.54978   Biso      1.000     Cu          0.868926  
         Cu8       1.0000    0.93988   0.55576   0.04756   Biso      1.000     Cu          0.859671  
         H1        1.0000    0.76860   0.83160   0.75780   Biso      1.000     H          0.129785  
         H2        1.0000    0.52630   0.71390   0.57710   Biso      1.000     H          0.122167  
         H3        1.0000    0.54630   0.76670   0.66110   Biso      1.000     H          0.130151  
         H4        1.0000    0.59410   0.52920   0.80520   Biso      1.000     H          0.134508  
         H5        1.0000    0.56930   0.47470   0.72270   Biso      1.000     H          0.123244  
         H6        1.0000    0.57960   0.74710   0.88690   Biso      1.000     H          0.130321  
         H7        1.0000    0.82530   0.31090   0.48230   Biso      1.000     H          0.11818   
         H8        1.0000    0.86990   0.50990   0.81750   Biso      1.000     H          0.12095   
         H9        1.0000    0.74730   0.55900   0.76020   Biso      1.000     H          0.128732  
         H10       1.0000    0.64200   0.33160   0.25780   Biso      1.000     H          0.128625  
         H11       1.0000    0.99240   0.25260   0.42220   Biso      1.000     H          0.132211  
         H12       1.0000    0.70090   0.69890   0.94590   Biso      1.000     H          0.125164  
         H13       1.0000    0.74460   0.41280   0.20640   Biso      1.000     H          0.120281  
         H14       1.0000    0.62970   0.05720   0.27120   Biso      1.000     H          0.136426  
         H15       1.0000    0.83800   0.16570   0.10970   Biso      1.000     H          0.13625   
         H16       1.0000    0.57840   0.00100   0.21040   Biso      1.000     H          0.120048  
         H17       1.0000    0.95810   0.44280   0.22880   Biso      1.000     H          0.136068  
         H18       1.0000    0.66720   0.24740   0.07780   Biso      1.000     H          0.132219  
         H19       1.0000    0.06650   0.94100   0.73980   Biso      1.000     H          0.127321  
         H20       1.0000    0.19730   0.99010   0.68250   Biso      1.000     H          0.118099  
         H21       1.0000    0.34570   0.80110   0.55410   Biso      1.000     H          0.123897  
         H22       1.0000    0.21360   0.75290   0.61310   Biso      1.000     H          0.129968  
         H23       1.0000    0.76670   0.02530   0.77730   Biso      1.000     H          0.124892  
         H24       1.0000    0.92850   0.97080   0.69480   Biso      1.000     H          0.134745  
         H25       1.0000    0.97410   0.73330   0.83890   Biso      1.000     H          0.129299  
         H26       1.0000    0.81730   0.78610   0.92290   Biso      1.000     H          0.120562  
         H27       1.0000    0.93070   0.25400   0.05480   Biso      1.000     H          0.120207  
         H28       1.0000    0.78980   0.49900   0.28960   Biso      1.000     H          0.121455  
         H29       1.0000    0.61850   0.18910   0.01770   Biso      1.000     H          0.119293  
         H30       1.0000    0.23950   0.24600   0.44520   Biso      1.000     H          0.120373  
         H31       1.0000    0.45370   0.23330   0.33890   Biso      1.000     H          0.130151  
         H32       1.0000    0.40590   0.47080   0.19480   Biso      1.000     H          0.134506  
         H33       1.0000    0.43070   0.52530   0.27730   Biso      1.000     H          0.123244  
         H34       1.0000    0.42040   0.25290   0.11310   Biso      1.000     H          0.13032   
         H35       1.0000    0.29910   0.30110   0.05410   Biso      1.000     H          0.125164  
         H36       1.0000    0.25270   0.44100   0.23980   Biso      1.000     H          0.128735  
         H37       1.0000    0.47370   0.28610   0.42290   Biso      1.000     H          0.122167  
         H38       1.0000    0.17470   0.68910   0.51770   Biso      1.000     H          0.118182  
         H39       1.0000    0.04190   0.55720   0.77120   Biso      1.000     H          0.136068  
         H40       1.0000    0.21020   0.50100   0.71040   Biso      1.000     H          0.121456  
         H41       1.0000    0.88660   0.66570   0.60970   Biso      1.000     H          0.135543  
         H42       1.0000    0.76050   0.75400   0.55480   Biso      1.000     H          0.120375  
         H43       1.0000    0.63620   0.91280   0.70640   Biso      1.000     H          0.121779  
         H44       1.0000    0.11340   0.33430   0.39030   Biso      1.000     H          0.135542  
         H45       1.0000    0.00760   0.74740   0.57780   Biso      1.000     H          0.132211  
         H46       1.0000    0.35800   0.66840   0.74220   Biso      1.000     H          0.128625  
         H47       1.0000    0.13010   0.49010   0.18250   Biso      1.000     H          0.120957  
         H48       1.0000    0.06930   0.74600   0.94520   Biso      1.000     H          0.120208  
         H49       1.0000    0.36380   0.08720   0.29360   Biso      1.000     H          0.121778  
         H50       1.0000    0.25540   0.58720   0.79360   Biso      1.000     H          0.120281  
         H51       1.0000    0.23140   0.16840   0.24220   Biso      1.000     H          0.129789  
         H52       1.0000    0.18270   0.21390   0.07710   Biso      1.000     H          0.120563  
         H53       1.0000    0.02590   0.26670   0.16110   Biso      1.000     H          0.129307  
         H54       1.0000    0.07150   0.02920   0.30520   Biso      1.000     H          0.134776  
         H55       1.0000    0.78640   0.24710   0.38690   Biso      1.000     H          0.129978  
         H56       1.0000    0.65430   0.19890   0.44590   Biso      1.000     H          0.123899  
         H57       1.0000    0.23330   0.97470   0.22270   Biso      1.000     H          0.124906  
         H58       1.0000    0.93350   0.05900   0.26020   Biso      1.000     H          0.128899  
         H59       1.0000    0.38150   0.81090   0.98230   Biso      1.000     H          0.119295  
         H60       1.0000    0.33280   0.75260   0.92220   Biso      1.000     H          0.132218  
         H61       1.0000    0.37030   0.94280   0.72880   Biso      1.000     H          0.136424  
         H62       1.0000    0.42160   0.99900   0.78960   Biso      1.000     H          0.12005   
         H63       1.0000    0.16200   0.83430   0.89030   Biso      1.000     H          0.136245  
         H64       1.0000    0.80270   0.00990   0.31750   Biso      1.000     H          0.118201  
         O1        1.0000    0.94390   0.19180   0.28940   Biso      1.000     O          -0.222887           
         O2        1.0000    0.02030   0.62420   0.97200   Biso      1.000     O          -0.548894           
         O3        1.0000    0.63590   0.00680   0.40160   Biso      1.000     O          -0.532294           
         O4        1.0000    0.38089   0.97752   0.11230   Biso      1.000     O          -0.538535           
         O5        1.0000    0.56230   0.10170   0.48270   Biso      1.000     O          -0.523102           
         O6        1.0000    0.44130   0.02360   0.90200   Biso      1.000     O          -0.536502           
         O7        1.0000    0.33060   0.80690   0.77550   Biso      1.000     O          -0.214968           
         O8        1.0000    0.12390   0.53060   0.89140   Biso      1.000     O          -0.525804           
         O9        1.0000    0.91300   0.69310   0.72450   Biso      1.000     O          -0.2185   
         O10       1.0000    0.48600   0.39420   0.47260   Biso      1.000     O          -0.543311           
         O11       1.0000    0.47071   0.52248   0.38770   Biso      1.000     O          -0.537796           
         O12       1.0000    0.42510   0.30820   0.21060   Biso      1.000     O          -0.222515           
         O13       1.0000    0.04430   0.49320   0.09840   Biso      1.000     O          -0.533028           
         O14       1.0000    0.14670   0.39830   0.01730   Biso      1.000     O          -0.525818           
         O15       1.0000    0.36690   0.47640   0.59800   Biso      1.000     O          -0.53513  
         O16       1.0000    0.35280   0.10580   0.02740   Biso      1.000     O          -0.542687           
         O17       1.0000    0.61650   0.87580   0.52800   Biso      1.000     O          -0.549878           
         O18       1.0000    0.46740   0.89490   0.98930   Biso      1.000     O          -0.539942           
         O19       1.0000    0.64840   0.39490   0.48930   Biso      1.000     O          -0.540813           
         O20       1.0000    0.05610   0.80820   0.71060   Biso      1.000     O          -0.223018           
         O21       1.0000    0.38350   0.12420   0.47200   Biso      1.000     O          -0.549879           
         O22       1.0000    0.54590   0.96940   0.60860   Biso      1.000     O          -0.52463  
         O23       1.0000    0.64720   0.89420   0.97260   Biso      1.000     O          -0.542686           
         O24       1.0000    0.61911   0.02248   0.88770   Biso      1.000     O          -0.538537           
         O25       1.0000    0.36410   0.99320   0.59840   Biso      1.000     O          -0.532311           
         O26       1.0000    0.43770   0.89830   0.51730   Biso      1.000     O          -0.523101           
         O27       1.0000    0.55870   0.97640   0.09800   Biso      1.000     O          -0.536499           
         O28       1.0000    0.66940   0.19310   0.22450   Biso      1.000     O          -0.214953           
         O29       1.0000    0.97970   0.37580   0.02800   Biso      1.000     O          -0.548895           
         O30       1.0000    0.87610   0.46940   0.10860   Biso      1.000     O          -0.525803           
         O31       1.0000    0.53260   0.10510   0.01070   Biso      1.000     O          -0.539944           
         O32       1.0000    0.51400   0.60580   0.52740   Biso      1.000     O          -0.54331  
         O33       1.0000    0.52929   0.47752   0.61230   Biso      1.000     O          -0.537797           
         O34       1.0000    0.57490   0.69180   0.78940   Biso      1.000     O          -0.222516           
         O35       1.0000    0.95570   0.50680   0.90160   Biso      1.000     O          -0.533028           
         O36       1.0000    0.85330   0.60170   0.98270   Biso      1.000     O          -0.525818           
         O37       1.0000    0.63310   0.52360   0.40200   Biso      1.000     O          -0.535129           
         O38       1.0000    0.08700   0.30690   0.27550   Biso      1.000     O          -0.218496           
         O39       1.0000    0.45410   0.03060   0.39140   Biso      1.000     O          -0.524629           
         O40       1.0000    0.35160   0.60510   0.51070   Biso      1.000     O          -0.540813 