
##########################################################################
#               Crystallographic Information Format file
#               Produced by PyCifRW module
#
#  This is a CIF file.  CIF has been adopted by the International
#  Union of Crystallography as the standard for data archiving and
#  transmission.
#
#  For information on this file format, follow the CIF links at
#  http://www.iucr.org
##########################################################################

data_image0

_cell_length_a                          9.072
_cell_length_b                          13.14
_cell_length_c                          30.7
_cell_angle_alpha                       92.72
_cell_angle_beta                        90.2
_cell_angle_gamma                       90.01
_symmetry_space_group_name_H-M          'P 1'
_symmetry_int_tables_number             1
loop_
  _symmetry_equiv_pos_as_xyz
         'x, y, z' 
loop_
  _atom_site_label
  _atom_site_occupancy
  _atom_site_fract_x
  _atom_site_fract_y
  _atom_site_fract_z
  _atom_site_thermal_displace_type
  _atom_site_B_iso_or_equiv
  _atom_site_type_symbol
  _atom_site_charge
         C1        1.0000    0.66240   0.76090   0.76150   Biso      1.000     C          0.28278   
         C2        1.0000    0.86730   0.61730   0.05480   Biso      1.000     C          0.566991  
         C3        1.0000    0.79240   0.64590   0.80530   Biso      1.000     C          -0.082623           
         C4        1.0000    0.75590   0.64600   0.88630   Biso      1.000     C          0.548075  
         C5        1.0000    0.86430   0.13010   0.01880   Biso      1.000     C          -0.168167           
         C6        1.0000    0.94710   0.82240   0.51370   Biso      1.000     C          0.06575   
         C7        1.0000    0.24410   0.35400   0.11370   Biso      1.000     C          0.548075  
         C8        1.0000    0.44100   0.66050   0.98570   Biso      1.000     C          -0.168199           
         C9        1.0000    0.23770   0.21160   0.84770   Biso      1.000     C          -0.219136           
         C10       1.0000    0.64490   0.42510   0.00840   Biso      1.000     C          0.085208  
         C11       1.0000    0.05290   0.17760   0.48630   Biso      1.000     C          0.065751  
         C12       1.0000    0.73860   0.78960   0.65210   Biso      1.000     C          -0.22175  
         C13       1.0000    0.83850   0.76030   0.26190   Biso      1.000     C          0.281579  
         C14       1.0000    0.85500   0.75330   0.18380   Biso      1.000     C          0.276374  
         C15       1.0000    0.30250   0.63030   0.06200   Biso      1.000     C          0.086221  
         C16       1.0000    0.33760   0.23910   0.23850   Biso      1.000     C          0.282781  
         C17       1.0000    0.76230   0.78840   0.15230   Biso      1.000     C          -0.219133           
         C18       1.0000    0.73440   0.74350   0.61020   Biso      1.000     C          -0.086571           
         C19       1.0000    0.11450   0.71780   0.55910   Biso      1.000     C          -0.172309           
         C20       1.0000    0.23390   0.25630   0.88970   Biso      1.000     C          -0.086906           
         C21       1.0000    0.95260   0.21400   0.01430   Biso      1.000     C          0.094011  
         C22       1.0000    0.80060   0.36910   0.43760   Biso      1.000     C          0.082763  
         C23       1.0000    0.74290   0.64650   0.38620   Biso      1.000     C          0.546153  
         C24       1.0000    0.91670   0.80020   0.29810   Biso      1.000     C          -0.227373           
         C25       1.0000    0.78040   0.68500   0.34240   Biso      1.000     C          -0.046375           
         C26       1.0000    0.20760   0.35410   0.19470   Biso      1.000     C          -0.082623           
         C27       1.0000    0.29290   0.35450   0.69500   Biso      1.000     C          -0.081561           
         C28       1.0000    0.21960   0.31500   0.65760   Biso      1.000     C          -0.046375           
         C29       1.0000    0.61470   0.76060   0.83780   Biso      1.000     C          -0.092037           
         C30       1.0000    0.55350   0.82180   0.01350   Biso      1.000     C          0.067227  
         C31       1.0000    0.21890   0.87660   0.94340   Biso      1.000     C          0.121197  
         C32       1.0000    0.35510   0.57490   0.99160   Biso      1.000     C          0.08521   
         C33       1.0000    0.26140   0.21040   0.34790   Biso      1.000     C          -0.22175  
         C34       1.0000    0.36270   0.38240   0.44510   Biso      1.000     C          0.571119  
         C35       1.0000    0.14020   0.33930   0.89920   Biso      1.000     C          -0.057424           
         C36       1.0000    0.72030   0.12360   0.55660   Biso      1.000     C          0.119635  
         C37       1.0000    0.14470   0.57420   0.49180   Biso      1.000     C          0.087099  
         C38       1.0000    0.54850   0.21430   0.51410   Biso      1.000     C          0.091671  
         C39       1.0000    0.25710   0.35350   0.61380   Biso      1.000     C          0.546153  
         C40       1.0000    0.44650   0.17820   0.98650   Biso      1.000     C          0.067226  
         C41       1.0000    0.36280   0.86950   0.48070   Biso      1.000     C          -0.166804           
         C42       1.0000    0.44540   0.37620   0.36630   Biso      1.000     C          -0.083145           
         C43       1.0000    0.85530   0.42580   0.50820   Biso      1.000     C          0.087099  
         C44       1.0000    0.63730   0.61760   0.55490   Biso      1.000     C          0.571119  
         C45       1.0000    0.29190   0.79790   0.41180   Biso      1.000     C          -0.185142           
         C46       1.0000    0.78110   0.12340   0.05660   Biso      1.000     C          0.121198  
         C47       1.0000    0.11800   0.71360   0.91960   Biso      1.000     C          0.093896  
         C48       1.0000    0.73840   0.68250   0.26460   Biso      1.000     C          -0.2354   
         C49       1.0000    0.94520   0.66980   0.17520   Biso      1.000     C          -0.222583           
         C50       1.0000    0.31680   0.96250   0.93700   Biso      1.000     C          0.024776  
         C51       1.0000    0.55460   0.62380   0.63370   Biso      1.000     C          -0.083145           
         C52       1.0000    0.14500   0.24670   0.81620   Biso      1.000     C          0.276377  
         C53       1.0000    0.95920   0.26720   0.47990   Biso      1.000     C          0.125096  
         C54       1.0000    0.55900   0.33950   0.01430   Biso      1.000     C          -0.168197           
         C55       1.0000    0.13570   0.86990   0.98120   Biso      1.000     C          -0.168165           
         C56       1.0000    0.64770   0.75450   0.68340   Biso      1.000     C          0.277105  
         C57       1.0000    0.61290   0.28220   0.94120   Biso      1.000     C          -0.174559           
         C58       1.0000    0.61840   0.28750   0.58060   Biso      1.000     C          0.095987  
         C59       1.0000    0.13270   0.38270   0.94520   Biso      1.000     C          0.566991  
         C60       1.0000    0.41450   0.19980   0.20220   Biso      1.000     C          -0.224507           
         C61       1.0000    0.76610   0.74370   0.11030   Biso      1.000     C          -0.086907           
         C62       1.0000    0.69750   0.36970   0.93800   Biso      1.000     C          0.086221  
         C63       1.0000    0.81780   0.03680   0.56330   Biso      1.000     C          0.027814  
         C64       1.0000    0.26560   0.25650   0.38980   Biso      1.000     C          -0.086571           
         C65       1.0000    0.44510   0.32910   0.32490   Biso      1.000     C          -0.220611           
         C66       1.0000    0.88200   0.28640   0.08040   Biso      1.000     C          0.093896  
         C67       1.0000    0.26160   0.31750   0.73540   Biso      1.000     C          -0.235404           
         C68       1.0000    0.85980   0.66070   0.10080   Biso      1.000     C          -0.057424           
         C69       1.0000    0.70710   0.64550   0.30500   Biso      1.000     C          -0.081559           
         C70       1.0000    0.27970   0.87640   0.44340   Biso      1.000     C          0.119639  
         C71       1.0000    0.58550   0.80020   0.79780   Biso      1.000     C          -0.224503           
         C72       1.0000    0.76210   0.68330   0.76470   Biso      1.000     C          -0.23926  
         C73       1.0000    0.54110   0.26670   0.98010   Biso      1.000     C          0.128363  
         C74       1.0000    0.05350   0.37620   0.86630   Biso      1.000     C          -0.082827           
         C75       1.0000    0.04080   0.73280   0.52010   Biso      1.000     C          0.125096  
         C76       1.0000    0.05570   0.66010   0.48580   Biso      1.000     C          -0.169776           
         C77       1.0000    0.35230   0.24550   0.31660   Biso      1.000     C          0.277105  
         C78       1.0000    0.88520   0.75980   0.33810   Biso      1.000     C          -0.090499           
         C79       1.0000    0.08330   0.19980   0.70190   Biso      1.000     C          -0.227374           
         C80       1.0000    0.45150   0.78570   0.48590   Biso      1.000     C          0.091675  
         C81       1.0000    0.88550   0.28220   0.44090   Biso      1.000     C          -0.172307           
         C82       1.0000    0.79240   0.20260   0.08800   Biso      1.000     C          -0.184257           
         C83       1.0000    0.04740   0.78600   0.98570   Biso      1.000     C          0.094011  
         C84       1.0000    0.05480   0.33020   0.82480   Biso      1.000     C          -0.222579           
         C85       1.0000    0.28060   0.31570   0.15760   Biso      1.000     C          -0.047046           
         C86       1.0000    0.71940   0.68430   0.84240   Biso      1.000     C          -0.047045           
         C87       1.0000    0.38160   0.71250   0.41940   Biso      1.000     C          0.095987  
         C88       1.0000    0.19940   0.63090   0.56240   Biso      1.000     C          0.082765  
         C89       1.0000    0.23790   0.31670   0.23530   Biso      1.000     C          -0.23926  
         C90       1.0000    0.94650   0.62380   0.13370   Biso      1.000     C          -0.082823           
         C91       1.0000    0.18220   0.96320   0.43670   Biso      1.000     C          0.027813  
         C92       1.0000    0.94430   0.33990   0.51420   Biso      1.000     C          -0.169776           
         C93       1.0000    0.64260   0.66110   0.60070   Biso      1.000     C          -0.056139           
         C94       1.0000    0.11480   0.24020   0.66190   Biso      1.000     C          -0.090499           
         C95       1.0000    0.55490   0.67090   0.67510   Biso      1.000     C          -0.220611           
         C96       1.0000    0.63720   0.13050   0.51930   Biso      1.000     C          -0.166796           
         C97       1.0000    0.45890   0.73330   0.01990   Biso      1.000     C          0.128362  
         C98       1.0000    0.70810   0.20210   0.58820   Biso      1.000     C          -0.185142           
         C99       1.0000    0.16150   0.23970   0.73810   Biso      1.000     C          0.281585  
         C100      1.0000    0.38530   0.23940   0.16220   Biso      1.000     C          -0.092033           
         C101      1.0000    0.20760   0.79740   0.91200   Biso      1.000     C          -0.184257           
         C102      1.0000    0.38710   0.71780   0.05880   Biso      1.000     C          -0.174557           
         C103      1.0000    0.68320   0.03750   0.06300   Biso      1.000     C          0.024776  
         C104      1.0000    0.35740   0.33890   0.39930   Biso      1.000     C          -0.056139           
         Cd1       1.0000    0.13557   0.42152   0.03696   Biso      1.000     Cd          0.868473  
         Cd2       1.0000    0.36497   0.42146   0.53711   Biso      1.000     Cd          0.87324   
         Cd3       1.0000    0.63503   0.57854   0.46289   Biso      1.000     Cd          0.87324   
         Cd4       1.0000    0.86443   0.57848   0.96304   Biso      1.000     Cd          0.868473  
         H1        1.0000    0.39200   0.17400   0.01270   Biso      1.000     H          0.110618  
         H2        1.0000    0.01200   0.14750   0.70450   Biso      1.000     H          0.138694  
         H3        1.0000    0.48510   0.14700   0.20490   Biso      1.000     H          0.135141  
         H4        1.0000    0.29470   0.23060   0.91190   Biso      1.000     H          0.104449  
         H5        1.0000    0.26070   0.80000   0.88550   Biso      1.000     H          0.1298    
         H6        1.0000    0.50770   0.78180   0.51190   Biso      1.000     H          0.099249  
         H7        1.0000    0.75990   0.19840   0.61500   Biso      1.000     H          0.128555  
         H8        1.0000    0.30870   0.34550   0.76090   Biso      1.000     H          0.132866  
         H9        1.0000    0.80390   0.84470   0.65870   Biso      1.000     H          0.134087  
         H10       1.0000    0.99440   0.35570   0.80240   Biso      1.000     H          0.135133  
         H11       1.0000    0.65570   0.47480   0.03170   Biso      1.000     H          0.09924   
         H12       1.0000    0.13990   0.92250   0.00350   Biso      1.000     H          0.130743  
         H13       1.0000    0.18990   0.34450   0.26060   Biso      1.000     H          0.13205   
         H14       1.0000    0.73930   0.20000   0.11450   Biso      1.000     H          0.1298    
         H15       1.0000    0.01040   0.21710   0.98870   Biso      1.000     H          0.095343  
         H16       1.0000    0.50580   0.43430   0.37220   Biso      1.000     H          0.121804  
         H17       1.0000    0.89320   0.23380   0.41700   Biso      1.000     H          0.131468  
         H18       1.0000    0.49420   0.56570   0.62780   Biso      1.000     H          0.121804  
         H19       1.0000    0.63570   0.59320   0.30750   Biso      1.000     H          0.118359  
         H20       1.0000    0.69610   0.84270   0.15920   Biso      1.000     H          0.131959  
         H21       1.0000    0.93760   0.78450   0.36330   Biso      1.000     H          0.10553   
         H22       1.0000    0.99240   0.43390   0.87230   Biso      1.000     H          0.121751  
         H23       1.0000    0.75010   0.37950   0.41100   Biso      1.000     H          0.101352  
         H24       1.0000    0.64100   0.07770   0.49710   Biso      1.000     H          0.12846   
         H25       1.0000    0.49230   0.21820   0.48810   Biso      1.000     H          0.099249  
         H26       1.0000    0.20490   0.23120   0.41200   Biso      1.000     H          0.103596  
         H27       1.0000    0.56210   0.78590   0.86270   Biso      1.000     H          0.10716   
         H28       1.0000    0.24990   0.62050   0.58900   Biso      1.000     H          0.101352  
         H29       1.0000    0.70530   0.76940   0.08810   Biso      1.000     H          0.104449  
         H30       1.0000    0.19610   0.15530   0.34130   Biso      1.000     H          0.134087  
         H31       1.0000    0.10730   0.17260   0.51260   Biso      1.000     H          0.111527  
         H32       1.0000    0.15620   0.52480   0.46850   Biso      1.000     H          0.099087  
         H33       1.0000    0.79510   0.76880   0.58800   Biso      1.000     H          0.103596  
         H34       1.0000    0.13530   0.97040   0.40930   Biso      1.000     H          0.100431  
         H35       1.0000    0.30390   0.15730   0.84080   Biso      1.000     H          0.131959  
         H36       1.0000    0.51270   0.33050   0.04160   Biso      1.000     H          0.134854  
         H37       1.0000    0.49320   0.64680   0.69740   Biso      1.000     H          0.136408  
         H38       1.0000    0.63580   0.03120   0.09030   Biso      1.000     H          0.099218  
         H39       1.0000    0.13640   0.40660   0.19220   Biso      1.000     H          0.118143  
         H40       1.0000    0.61520   0.34320   0.60150   Biso      1.000     H          0.106112  
         H41       1.0000    0.51490   0.85300   0.79510   Biso      1.000     H          0.13514   
         H42       1.0000    0.89270   0.82740   0.48740   Biso      1.000     H          0.111527  
         H43       1.0000    0.38480   0.65680   0.39850   Biso      1.000     H          0.106113  
         H44       1.0000    0.69130   0.65450   0.23910   Biso      1.000     H          0.132866  
         H45       1.0000    0.43790   0.21410   0.13730   Biso      1.000     H          0.107159  
         H46       1.0000    0.10680   0.76620   0.58300   Biso      1.000     H          0.131468  
         H47       1.0000    0.35900   0.92230   0.50290   Biso      1.000     H          0.12846   
         H48       1.0000    0.00650   0.66840   0.45890   Biso      1.000     H          0.136757  
         H49       1.0000    0.11330   0.65870   0.89840   Biso      1.000     H          0.105256  
         H50       1.0000    0.48730   0.66950   0.95840   Biso      1.000     H          0.134854  
         H51       1.0000    0.86470   0.02960   0.59070   Biso      1.000     H          0.10043   
         H52       1.0000    0.24010   0.80160   0.38500   Biso      1.000     H          0.128555  
         H53       1.0000    0.34430   0.52520   0.96830   Biso      1.000     H          0.09924   
         H54       1.0000    0.98960   0.78290   0.01130   Biso      1.000     H          0.095343  
         H55       1.0000    0.36430   0.40680   0.69250   Biso      1.000     H          0.118359  
         H56       1.0000    0.81010   0.65550   0.73940   Biso      1.000     H          0.13205   
         H57       1.0000    0.86010   0.07750   0.99650   Biso      1.000     H          0.130743  
         H58       1.0000    0.60800   0.82600   0.98730   Biso      1.000     H          0.110618  
         H59       1.0000    0.25320   0.61960   0.08870   Biso      1.000     H          0.099826  
         H60       1.0000    0.06240   0.21550   0.63670   Biso      1.000     H          0.10553   
         H61       1.0000    0.84380   0.47520   0.53150   Biso      1.000     H          0.099087  
         H62       1.0000    0.98800   0.85250   0.29550   Biso      1.000     H          0.138693  
         H63       1.0000    0.60450   0.23410   0.91730   Biso      1.000     H          0.13126   
         H64       1.0000    0.74680   0.38040   0.91130   Biso      1.000     H          0.099826  
         H65       1.0000    0.50680   0.35320   0.30260   Biso      1.000     H          0.136408  
         H66       1.0000    0.88670   0.34130   0.10160   Biso      1.000     H          0.105256  
         H67       1.0000    0.00760   0.56610   0.12770   Biso      1.000     H          0.12175   
         H68       1.0000    0.00560   0.64430   0.19760   Biso      1.000     H          0.135134  
         H69       1.0000    0.86360   0.59340   0.80780   Biso      1.000     H          0.118144  
         H70       1.0000    0.36420   0.96880   0.90970   Biso      1.000     H          0.099218  
         H71       1.0000    0.39550   0.76590   0.08270   Biso      1.000     H          0.13126   
         H72       1.0000    0.99350   0.33160   0.54110   Biso      1.000     H          0.136757  
         N1        1.0000    0.83960   0.97030   0.53180   Biso      1.000     N          -0.15583  
         N2        1.0000    0.46120   0.70980   0.45560   Biso      1.000     N          -0.212957           
         N3        1.0000    0.66040   0.97000   0.03170   Biso      1.000     N          -0.154622           
         N4        1.0000    0.06130   0.10580   0.45620   Biso      1.000     N          -0.18831  
         N5        1.0000    0.21290   0.56070   0.52930   Biso      1.000     N          -0.22255  
         N6        1.0000    0.56330   0.89400   0.04340   Biso      1.000     N          -0.187316           
         N7        1.0000    0.78710   0.43930   0.47070   Biso      1.000     N          -0.22255  
         N8        1.0000    0.03870   0.70880   0.95600   Biso      1.000     N          -0.212627           
         N9        1.0000    0.33960   0.03000   0.96830   Biso      1.000     N          -0.154622           
         N10       1.0000    0.43670   0.10600   0.95660   Biso      1.000     N          -0.187316           
         N11       1.0000    0.93870   0.89420   0.54380   Biso      1.000     N          -0.188308           
         N12       1.0000    0.96130   0.29120   0.04400   Biso      1.000     N          -0.212627           
         N13       1.0000    0.53880   0.29020   0.54440   Biso      1.000     N          -0.212957           
         N14       1.0000    0.28780   0.56080   0.02910   Biso      1.000     N          -0.221535           
         N15       1.0000    0.16040   0.02970   0.46820   Biso      1.000     N          -0.155827           
         N16       1.0000    0.71220   0.43920   0.97090   Biso      1.000     N          -0.221535           
         O1        1.0000    0.29720   0.30980   0.08001   Biso      1.000     O          -0.575264           
         O2        1.0000    0.86500   0.80840   0.22330   Biso      1.000     O          -0.246811           
         O3        1.0000    0.20400   0.30960   0.57991   Biso      1.000     O          -0.574076           
         O4        1.0000    0.84360   0.56960   0.88832   Biso      1.000     O          -0.582219           
         O5        1.0000    0.36270   0.19060   0.27690   Biso      1.000     O          -0.245694           
         O6        1.0000    0.94710   0.54070   0.04590   Biso      1.000     O          -0.589055           
         O7        1.0000    0.78740   0.65810   0.02650   Biso      1.000     O          -0.551223           
         O8        1.0000    0.71130   0.65840   0.52646   Biso      1.000     O          -0.542338           
         O9        1.0000    0.44490   0.45910   0.45440   Biso      1.000     O          -0.606496           
         O10       1.0000    0.65530   0.56990   0.38812   Biso      1.000     O          -0.583009           
         O11       1.0000    0.21260   0.34190   0.97350   Biso      1.000     O          -0.551223           
         O12       1.0000    0.34470   0.43010   0.61188   Biso      1.000     O          -0.583009           
         O13       1.0000    0.13500   0.19160   0.77670   Biso      1.000     O          -0.246812           
         O14       1.0000    0.79600   0.69040   0.42009   Biso      1.000     O          -0.574076           
         O15       1.0000    0.05290   0.45930   0.95410   Biso      1.000     O          -0.589055           
         O16       1.0000    0.70280   0.69020   0.91999   Biso      1.000     O          -0.575263           
         O17       1.0000    0.63730   0.80940   0.72310   Biso      1.000     O          -0.245694           
         O18       1.0000    0.15640   0.43040   0.11168   Biso      1.000     O          -0.582219           
         O19       1.0000    0.28870   0.34160   0.47354   Biso      1.000     O          -0.542338           
         O20       1.0000    0.55510   0.54090   0.54560   Biso      1.000     O          -0.606496 