
##########################################################################
#               Crystallographic Information Format file
#               Produced by PyCifRW module
#
#  This is a CIF file.  CIF has been adopted by the International
#  Union of Crystallography as the standard for data archiving and
#  transmission.
#
#  For information on this file format, follow the CIF links at
#  http://www.iucr.org
##########################################################################

data_image0

_cell_length_a                          7.528
_cell_length_b                          17.853
_cell_length_c                          23.757
_cell_angle_alpha                       92.534
_cell_angle_beta                        90
_cell_angle_gamma                       90
_symmetry_space_group_name_H-M          'P 1'
_symmetry_int_tables_number             1
loop_
  _symmetry_equiv_pos_as_xyz
         'x, y, z' 
loop_
  _atom_site_label
  _atom_site_occupancy
  _atom_site_fract_x
  _atom_site_fract_y
  _atom_site_fract_z
  _atom_site_thermal_displace_type
  _atom_site_B_iso_or_equiv
  _atom_site_type_symbol
  _atom_site_charge
         C1        1.0000    0.29860   0.54024   0.30886   Biso      1.000     C          0.097937  
         C2        1.0000    0.70050   0.87630   0.64223   Biso      1.000     C          -0.027382           
         C3        1.0000    0.57520   0.91679   0.60502   Biso      1.000     C          0.549889  
         C4        1.0000    0.55750   0.24990   0.88686   Biso      1.000     C          -0.091495           
         C5        1.0000    0.62350   0.17895   0.87372   Biso      1.000     C          -0.143354           
         C6        1.0000    0.51980   0.11564   0.88116   Biso      1.000     C          0.100995  
         C7        1.0000    0.34770   0.12449   0.90223   Biso      1.000     C          -0.148928           
         C8        1.0000    0.28200   0.19586   0.91480   Biso      1.000     C          -0.081078           
         C9        1.0000    0.38470   0.25887   0.90674   Biso      1.000     C          -0.031363           
         C10       1.0000    0.30890   0.33610   0.91961   Biso      1.000     C          0.616248  
         C11       1.0000    0.46440   0.97493   0.85975   Biso      1.000     C          0.68834   
         C12       1.0000    0.72850   0.02003   0.91516   Biso      1.000     C          0.690869  
         C13       1.0000    0.60320   0.03837   0.86606   Biso      1.000     C          -0.305008           
         C14       1.0000    0.68810   0.07045   0.71110   Biso      1.000     C          -0.0798   
         C15       1.0000    0.61110   0.06957   0.76369   Biso      1.000     C          -0.139185           
         C16       1.0000    0.66090   0.86868   0.69874   Biso      1.000     C          -0.086326           
         C17       1.0000    0.70140   0.04024   0.80886   Biso      1.000     C          0.097938  
         C18       1.0000    0.94950   0.01390   0.74742   Biso      1.000     C          -0.081944           
         C19       1.0000    0.85870   0.04278   0.70275   Biso      1.000     C          -0.031366           
         C20       1.0000    0.94590   0.04285   0.64585   Biso      1.000     C          0.598346  
         C21       1.0000    0.16480   0.80717   0.78234   Biso      1.000     C          0.686716  
         C22       1.0000    0.85810   0.65410   0.87912   Biso      1.000     C          -0.085432           
         C23       1.0000    0.97070   0.69343   0.84554   Biso      1.000     C          -0.139971           
         C24       1.0000    0.92770   0.70411   0.78951   Biso      1.000     C          0.098706  
         C25       1.0000    0.77370   0.67103   0.76755   Biso      1.000     C          -0.134287           
         C26       1.0000    0.66090   0.63132   0.80126   Biso      1.000     C          -0.086326           
         C27       1.0000    0.70050   0.62370   0.85777   Biso      1.000     C          -0.02738  
         C28       1.0000    0.57520   0.58321   0.89498   Biso      1.000     C          0.549887  
         C29       1.0000    0.55750   0.25010   0.61314   Biso      1.000     C          -0.091495           
         C30       1.0000    0.62350   0.32105   0.62628   Biso      1.000     C          -0.143354           
         C31       1.0000    0.51980   0.38436   0.61884   Biso      1.000     C          0.100995  
         C32       1.0000    0.87180   0.01164   0.80016   Biso      1.000     C          -0.154209           
         C33       1.0000    0.34770   0.37551   0.59777   Biso      1.000     C          -0.148928           
         C34       1.0000    0.77370   0.82897   0.73245   Biso      1.000     C          -0.134287           
         C35       1.0000    0.97070   0.80657   0.65446   Biso      1.000     C          -0.139972           
         C36       1.0000    0.05050   0.98610   0.25258   Biso      1.000     C          -0.081944           
         C37       1.0000    0.14130   0.95722   0.29725   Biso      1.000     C          -0.031367           
         C38       1.0000    0.05410   0.95715   0.35415   Biso      1.000     C          0.598346  
         C39       1.0000    0.83520   0.19283   0.21766   Biso      1.000     C          0.686716  
         C40       1.0000    0.14190   0.34590   0.12088   Biso      1.000     C          -0.085432           
         C41       1.0000    0.02930   0.30657   0.15446   Biso      1.000     C          -0.139971           
         C42       1.0000    0.07230   0.29589   0.21049   Biso      1.000     C          0.098706  
         C43       1.0000    0.22630   0.32897   0.23245   Biso      1.000     C          -0.134288           
         C44       1.0000    0.33910   0.36868   0.19874   Biso      1.000     C          -0.086326           
         C45       1.0000    0.29950   0.37630   0.14223   Biso      1.000     C          -0.027382           
         C46       1.0000    0.42480   0.41679   0.10502   Biso      1.000     C          0.549891  
         C47       1.0000    0.44250   0.74990   0.38686   Biso      1.000     C          -0.091495           
         C48       1.0000    0.37650   0.67895   0.37372   Biso      1.000     C          -0.143354           
         C49       1.0000    0.48020   0.61564   0.38116   Biso      1.000     C          0.100995  
         C50       1.0000    0.92770   0.79589   0.71049   Biso      1.000     C          0.098706  
         C51       1.0000    0.65230   0.62449   0.40223   Biso      1.000     C          -0.148929           
         C52       1.0000    0.61530   0.75887   0.40674   Biso      1.000     C          -0.031365           
         C53       1.0000    0.69110   0.83610   0.41961   Biso      1.000     C          0.616247  
         C54       1.0000    0.53560   0.47493   0.35975   Biso      1.000     C          0.68834   
         C55       1.0000    0.27150   0.52003   0.41516   Biso      1.000     C          0.690869  
         C56       1.0000    0.39680   0.53837   0.36606   Biso      1.000     C          -0.305008           
         C57       1.0000    0.31190   0.57045   0.21110   Biso      1.000     C          -0.079799           
         C58       1.0000    0.38890   0.56957   0.26369   Biso      1.000     C          -0.139184           
         C59       1.0000    0.38890   0.93043   0.23631   Biso      1.000     C          -0.139191           
         C60       1.0000    0.12820   0.51164   0.30016   Biso      1.000     C          -0.15421  
         C61       1.0000    0.05050   0.51390   0.24742   Biso      1.000     C          -0.081942           
         C62       1.0000    0.14130   0.54278   0.20275   Biso      1.000     C          -0.031366           
         C63       1.0000    0.05410   0.54285   0.14585   Biso      1.000     C          0.598344  
         C64       1.0000    0.16480   0.69283   0.71766   Biso      1.000     C          0.686716  
         C65       1.0000    0.85810   0.84590   0.62088   Biso      1.000     C          -0.08543  
         C66       1.0000    0.71800   0.69586   0.41480   Biso      1.000     C          -0.081075           
         C67       1.0000    0.28200   0.30414   0.58520   Biso      1.000     C          -0.081077           
         C68       1.0000    0.38470   0.24113   0.59326   Biso      1.000     C          -0.031362           
         C69       1.0000    0.30890   0.16390   0.58039   Biso      1.000     C          0.616247  
         C70       1.0000    0.48020   0.88436   0.11884   Biso      1.000     C          0.100995  
         C71       1.0000    0.37650   0.82105   0.12628   Biso      1.000     C          -0.143355           
         C72       1.0000    0.44250   0.75010   0.11314   Biso      1.000     C          -0.091495           
         C73       1.0000    0.42480   0.08321   0.39498   Biso      1.000     C          0.549887  
         C74       1.0000    0.29950   0.12370   0.35777   Biso      1.000     C          -0.027382           
         C75       1.0000    0.33910   0.13132   0.30126   Biso      1.000     C          -0.086326           
         C76       1.0000    0.65230   0.87551   0.09777   Biso      1.000     C          -0.148929           
         C77       1.0000    0.22630   0.17103   0.26755   Biso      1.000     C          -0.134287           
         C78       1.0000    0.02930   0.19343   0.34554   Biso      1.000     C          -0.139972           
         C79       1.0000    0.14190   0.15410   0.37912   Biso      1.000     C          -0.085431           
         C80       1.0000    0.83520   0.30717   0.28234   Biso      1.000     C          0.686716  
         C81       1.0000    0.04450   0.75000   0.75000   Biso      1.000     C          -0.304911           
         C82       1.0000    0.95550   0.25000   0.25000   Biso      1.000     C          -0.304911           
         C83       1.0000    0.12820   0.98836   0.19984   Biso      1.000     C          -0.154209           
         C84       1.0000    0.07230   0.20411   0.28951   Biso      1.000     C          0.098707  
         C85       1.0000    0.71800   0.80414   0.08520   Biso      1.000     C          -0.081077           
         C86       1.0000    0.29860   0.95976   0.19114   Biso      1.000     C          0.097938  
         C87       1.0000    0.69110   0.66390   0.08039   Biso      1.000     C          0.616248  
         C88       1.0000    0.61530   0.74113   0.09326   Biso      1.000     C          -0.031364           
         C89       1.0000    0.72850   0.47997   0.58484   Biso      1.000     C          0.690869  
         C90       1.0000    0.60320   0.46163   0.63394   Biso      1.000     C          -0.305008           
         C91       1.0000    0.68810   0.42955   0.78890   Biso      1.000     C          -0.0798   
         C92       1.0000    0.61110   0.43043   0.73631   Biso      1.000     C          -0.139185           
         C93       1.0000    0.70140   0.45976   0.69114   Biso      1.000     C          0.097938  
         C94       1.0000    0.87180   0.48836   0.69984   Biso      1.000     C          -0.15421  
         C95       1.0000    0.46440   0.52507   0.64025   Biso      1.000     C          0.68834   
         C96       1.0000    0.85870   0.45722   0.79725   Biso      1.000     C          -0.031367           
         C97       1.0000    0.94590   0.45715   0.85415   Biso      1.000     C          0.598345  
         C98       1.0000    0.31190   0.92955   0.28890   Biso      1.000     C          -0.079793           
         C99       1.0000    0.39680   0.96163   0.13394   Biso      1.000     C          -0.305008           
         C100      1.0000    0.27150   0.97997   0.08484   Biso      1.000     C          0.690869  
         C101      1.0000    0.53560   0.02507   0.14025   Biso      1.000     C          0.68834   
         C102      1.0000    0.94950   0.48610   0.75258   Biso      1.000     C          -0.081942           
         F1        1.0000    0.35380   0.52916   0.46499   Biso      1.000     F          -0.206554           
         F2        1.0000    0.61150   0.45805   0.40910   Biso      1.000     F          -0.213175           
         F3        1.0000    0.46430   0.41144   0.33867   Biso      1.000     F          -0.198322           
         F4        1.0000    0.66840   0.49275   0.32549   Biso      1.000     F          -0.192932           
         F5        1.0000    0.76080   0.14510   0.25164   Biso      1.000     F          -0.188606           
         F6        1.0000    0.70240   0.22520   0.18957   Biso      1.000     F          -0.211005           
         F7        1.0000    0.21160   0.05098   0.08780   Biso      1.000     F          -0.209169           
         F8        1.0000    0.12980   0.93529   0.08247   Biso      1.000     F          -0.192369           
         F9        1.0000    0.35380   0.97084   0.03501   Biso      1.000     F          -0.206554           
         F10       1.0000    0.61150   0.04195   0.09090   Biso      1.000     F          -0.213175           
         F11       1.0000    0.46430   0.08856   0.16133   Biso      1.000     F          -0.198322           
         F12       1.0000    0.66840   0.00725   0.17451   Biso      1.000     F          -0.192931           
         F13       1.0000    0.21160   0.44902   0.41220   Biso      1.000     F          -0.20917  
         F14       1.0000    0.76080   0.35490   0.24836   Biso      1.000     F          -0.188606           
         F15       1.0000    0.92920   0.15197   0.17919   Biso      1.000     F          -0.199134           
         F16       1.0000    0.12980   0.56471   0.41753   Biso      1.000     F          -0.192369           
         F17       1.0000    0.78840   0.94902   0.91220   Biso      1.000     F          -0.209169           
         F18       1.0000    0.29760   0.72520   0.68957   Biso      1.000     F          -0.211005           
         F19       1.0000    0.87020   0.43529   0.58247   Biso      1.000     F          -0.192369           
         F20       1.0000    0.64620   0.47084   0.53501   Biso      1.000     F          -0.206554           
         F21       1.0000    0.38850   0.54195   0.59090   Biso      1.000     F          -0.213175           
         F22       1.0000    0.53570   0.58856   0.66133   Biso      1.000     F          -0.198322           
         F23       1.0000    0.33160   0.50725   0.67451   Biso      1.000     F          -0.192932           
         F24       1.0000    0.23920   0.85490   0.74836   Biso      1.000     F          -0.188606           
         F25       1.0000    0.07080   0.65197   0.67919   Biso      1.000     F          -0.199134           
         F26       1.0000    0.29760   0.77480   0.81043   Biso      1.000     F          -0.211005           
         F27       1.0000    0.87020   0.06471   0.91753   Biso      1.000     F          -0.192369           
         F28       1.0000    0.64620   0.02916   0.96499   Biso      1.000     F          -0.206555           
         F29       1.0000    0.38850   0.95805   0.90910   Biso      1.000     F          -0.213175           
         F30       1.0000    0.53570   0.91144   0.83867   Biso      1.000     F          -0.198322           
         F31       1.0000    0.33160   0.99275   0.82549   Biso      1.000     F          -0.192931           
         F32       1.0000    0.23920   0.64510   0.75164   Biso      1.000     F          -0.188606           
         F33       1.0000    0.07080   0.84803   0.82081   Biso      1.000     F          -0.199134           
         F34       1.0000    0.78840   0.55098   0.58780   Biso      1.000     F          -0.20917  
         F35       1.0000    0.92920   0.34803   0.32081   Biso      1.000     F          -0.199134           
         F36       1.0000    0.70240   0.27480   0.31043   Biso      1.000     F          -0.211004           
         H1        1.0000    0.11140   0.14760   0.41740   Biso      1.000     H          0.105551  
         H2        1.0000    0.27580   0.41820   0.59200   Biso      1.000     H          0.116474  
         H3        1.0000    0.74090   0.32660   0.64050   Biso      1.000     H          0.119669  
         H4        1.0000    0.63040   0.20740   0.61770   Biso      1.000     H          0.120936  
         H5        1.0000    0.55600   0.60920   0.78570   Biso      1.000     H          0.116932  
         H6        1.0000    0.74560   0.67580   0.72890   Biso      1.000     H          0.11835   
         H7        1.0000    0.07830   0.71340   0.86070   Biso      1.000     H          0.117383  
         H8        1.0000    0.88860   0.64760   0.91740   Biso      1.000     H          0.105552  
         H9        1.0000    0.06680   0.99530   0.74190   Biso      1.000     H          0.118428  
         H10       1.0000    0.93460   0.99060   0.83030   Biso      1.000     H          0.11005   
         H11       1.0000    0.49480   0.08920   0.76920   Biso      1.000     H          0.121111  
         H12       1.0000    0.62430   0.09000   0.68050   Biso      1.000     H          0.119905  
         H13       1.0000    0.16480   0.20160   0.92910   Biso      1.000     H          0.117878  
         H14       1.0000    0.27580   0.08180   0.90800   Biso      1.000     H          0.116474  
         H15       1.0000    0.74090   0.17340   0.85950   Biso      1.000     H          0.119669  
         H16       1.0000    0.63040   0.29260   0.88230   Biso      1.000     H          0.120936  
         H17       1.0000    0.55600   0.89080   0.71430   Biso      1.000     H          0.116932  
         H18       1.0000    0.74560   0.82420   0.77110   Biso      1.000     H          0.11835   
         H19       1.0000    0.07830   0.78660   0.63930   Biso      1.000     H          0.117384  
         H20       1.0000    0.88860   0.85240   0.58260   Biso      1.000     H          0.105552  
         H21       1.0000    0.93320   0.49530   0.24190   Biso      1.000     H          0.118428  
         H22       1.0000    0.16480   0.29840   0.57090   Biso      1.000     H          0.117877  
         H23       1.0000    0.06540   0.49060   0.33030   Biso      1.000     H          0.11005   
         H24       1.0000    0.62430   0.41000   0.81950   Biso      1.000     H          0.119905  
         H25       1.0000    0.93460   0.50940   0.66970   Biso      1.000     H          0.11005   
         H26       1.0000    0.92170   0.21340   0.36070   Biso      1.000     H          0.117383  
         H27       1.0000    0.25440   0.17580   0.22890   Biso      1.000     H          0.11835   
         H28       1.0000    0.44400   0.10920   0.28570   Biso      1.000     H          0.116932  
         H29       1.0000    0.36960   0.70740   0.11770   Biso      1.000     H          0.120936  
         H30       1.0000    0.25910   0.82660   0.14050   Biso      1.000     H          0.119669  
         H31       1.0000    0.72420   0.91820   0.09200   Biso      1.000     H          0.116474  
         H32       1.0000    0.83520   0.79840   0.07090   Biso      1.000     H          0.117877  
         H33       1.0000    0.37570   0.91000   0.31950   Biso      1.000     H          0.119904  
         H34       1.0000    0.50520   0.91080   0.23080   Biso      1.000     H          0.121111  
         H35       1.0000    0.06540   0.00940   0.16970   Biso      1.000     H          0.11005   
         H36       1.0000    0.93320   0.00470   0.25810   Biso      1.000     H          0.118428  
         H37       1.0000    0.11140   0.35240   0.08260   Biso      1.000     H          0.105552  
         H38       1.0000    0.92170   0.28660   0.13930   Biso      1.000     H          0.117383  
         H39       1.0000    0.25440   0.32420   0.27110   Biso      1.000     H          0.11835   
         H40       1.0000    0.44400   0.39080   0.21430   Biso      1.000     H          0.116932  
         H41       1.0000    0.36960   0.79260   0.38230   Biso      1.000     H          0.120936  
         H42       1.0000    0.25910   0.67340   0.35950   Biso      1.000     H          0.119669  
         H43       1.0000    0.72420   0.58180   0.40800   Biso      1.000     H          0.116474  
         H44       1.0000    0.83520   0.70160   0.42910   Biso      1.000     H          0.117877  
         H45       1.0000    0.37570   0.59000   0.18050   Biso      1.000     H          0.119905  
         H46       1.0000    0.06680   0.50470   0.75810   Biso      1.000     H          0.118428  
         H47       1.0000    0.49480   0.41080   0.73080   Biso      1.000     H          0.121111  
         H48       1.0000    0.50520   0.58920   0.26920   Biso      1.000     H          0.12111   
         O1        1.0000    0.89850   0.98220   0.35704   Biso      1.000     O          -0.53439  
         O2        1.0000    0.38900   0.07532   0.44525   Biso      1.000     O          -0.391904           
         O3        1.0000    0.10150   0.48220   0.85704   Biso      1.000     O          -0.534391           
         O4        1.0000    0.85920   0.43274   0.89474   Biso      1.000     O          -0.525128           
         O5        1.0000    0.40750   0.10886   0.59030   Biso      1.000     O          -0.519499           
         O6        1.0000    0.15390   0.16016   0.56192   Biso      1.000     O          -0.574545           
         O7        1.0000    0.43140   0.56045   0.87173   Biso      1.000     O          -0.508446           
         O8        1.0000    0.61100   0.57532   0.94525   Biso      1.000     O          -0.391904           
         O9        1.0000    0.17470   0.49712   0.98621   Biso      1.000     O          -0.683646           
         O10       1.0000    0.10150   0.01780   0.64296   Biso      1.000     O          -0.534389           
         O11       1.0000    0.82530   0.99712   0.48621   Biso      1.000     O          -0.68365  
         O12       1.0000    0.40750   0.39114   0.90970   Biso      1.000     O          -0.519499           
         O13       1.0000    0.15390   0.33984   0.93808   Biso      1.000     O          -0.574545           
         O14       1.0000    0.43140   0.93955   0.62827   Biso      1.000     O          -0.508446           
         O15       1.0000    0.85920   0.06726   0.60526   Biso      1.000     O          -0.525128           
         O16       1.0000    0.17470   0.00288   0.51379   Biso      1.000     O          -0.68366  
         O17       1.0000    0.56860   0.06045   0.37173   Biso      1.000     O          -0.508445           
         O18       1.0000    0.61100   0.92468   0.55475   Biso      1.000     O          -0.391909           
         O19       1.0000    0.59250   0.60886   0.09030   Biso      1.000     O          -0.519499           
         O20       1.0000    0.14080   0.93274   0.39474   Biso      1.000     O          -0.525128           
         O21       1.0000    0.82530   0.50288   0.01379   Biso      1.000     O          -0.683653           
         O22       1.0000    0.84610   0.66016   0.06192   Biso      1.000     O          -0.574545           
         O23       1.0000    0.56860   0.43955   0.12827   Biso      1.000     O          -0.508448           
         O24       1.0000    0.84610   0.83984   0.43808   Biso      1.000     O          -0.574545           
         O25       1.0000    0.59250   0.89114   0.40970   Biso      1.000     O          -0.5195   
         O26       1.0000    0.14080   0.56726   0.10526   Biso      1.000     O          -0.525129           
         O27       1.0000    0.89850   0.51780   0.14296   Biso      1.000     O          -0.534387           
         O28       1.0000    0.38900   0.42468   0.05475   Biso      1.000     O          -0.391919           
         Zn1       1.0000    0.70501   0.99059   0.41270   Biso      1.000     Zn          0.937564  
         Zn2       1.0000    0.02626   0.92169   0.46843   Biso      1.000     Zn          0.994145  
         Zn3       1.0000    0.70501   0.50941   0.08730   Biso      1.000     Zn          0.937564  
         Zn4       1.0000    0.02626   0.57831   0.03157   Biso      1.000     Zn          0.994144  
         Zn5       1.0000    0.29499   0.00941   0.58730   Biso      1.000     Zn          0.937563  
         Zn6       1.0000    0.97374   0.07831   0.53157   Biso      1.000     Zn          0.994144  
         Zn7       1.0000    0.29499   0.49059   0.91270   Biso      1.000     Zn          0.937563  
         Zn8       1.0000    0.97374   0.42169   0.96843   Biso      1.000     Zn          0.994144 