
##########################################################################
#               Crystallographic Information Format file
#               Produced by PyCifRW module
#
#  This is a CIF file.  CIF has been adopted by the International
#  Union of Crystallography as the standard for data archiving and
#  transmission.
#
#  For information on this file format, follow the CIF links at
#  http://www.iucr.org
##########################################################################

data_image0

_cell_length_a                          5.501
_cell_length_b                          22.297
_cell_length_c                          20.799
_cell_angle_alpha                       97.543
_cell_angle_beta                        90
_cell_angle_gamma                       90
_symmetry_space_group_name_H-M          'P 1'
_symmetry_int_tables_number             1
loop_
  _symmetry_equiv_pos_as_xyz
         'x, y, z' 
loop_
  _atom_site_label
  _atom_site_occupancy
  _atom_site_fract_x
  _atom_site_fract_y
  _atom_site_fract_z
  _atom_site_thermal_displace_type
  _atom_site_B_iso_or_equiv
  _atom_site_type_symbol
  _atom_site_charge
         C1        1.0000    0.18320   0.46510   0.88910   Biso      1.000     C          -0.16427  
         C2        1.0000    0.54480   0.71450   0.97764   Biso      1.000     C          -0.19694  
         C3        1.0000    0.11960   0.61770   0.09520   Biso      1.000     C          -0.143646           
         C4        1.0000    0.84060   0.99380   0.39320   Biso      1.000     C          -0.16334  
         C5        1.0000    0.87410   0.32190   0.88460   Biso      1.000     C          -0.01683  
         C6        1.0000    0.82470   0.54370   0.49610   Biso      1.000     C          -0.147118           
         C7        1.0000    0.79090   0.64550   0.14940   Biso      1.000     C          0.081216  
         C8        1.0000    0.05000   0.03510   0.20060   Biso      1.000     C          -0.134448           
         C9        1.0000    0.29090   0.35450   0.35060   Biso      1.000     C          0.081217  
         C10       1.0000    0.52890   0.04740   0.46640   Biso      1.000     C          -0.149077           
         C11       1.0000    0.61960   0.38230   0.40480   Biso      1.000     C          -0.143647           
         C12       1.0000    0.33370   0.00270   0.55150   Biso      1.000     C          0.094264  
         C13       1.0000    0.45000   0.03510   0.70060   Biso      1.000     C          -0.134448           
         C14       1.0000    0.88040   0.38230   0.90480   Biso      1.000     C          -0.143634           
         C15       1.0000    0.00720   0.26716   0.67436   Biso      1.000     C          0.620836  
         C16       1.0000    0.97000   0.91660   0.75310   Biso      1.000     C          -0.045925           
         C17       1.0000    0.95520   0.71450   0.47764   Biso      1.000     C          -0.19694  
         C18       1.0000    0.13490   0.05040   0.01680   Biso      1.000     C          -0.134148           
         C19       1.0000    0.70910   0.64550   0.64940   Biso      1.000     C          0.081217  
         C20       1.0000    0.20910   0.35450   0.85060   Biso      1.000     C          0.081216  
         C21       1.0000    0.65940   0.99380   0.89320   Biso      1.000     C          -0.163341           
         C22       1.0000    0.55000   0.96490   0.29940   Biso      1.000     C          -0.134448           
         C23       1.0000    0.47110   0.95260   0.53360   Biso      1.000     C          -0.149064           
         C24       1.0000    0.50720   0.73284   0.82564   Biso      1.000     C          0.620836  
         C25       1.0000    0.63570   0.80190   0.06148   Biso      1.000     C          0.61562   
         C26       1.0000    0.36510   0.05040   0.51680   Biso      1.000     C          -0.134138           
         C27       1.0000    0.47000   0.08340   0.74690   Biso      1.000     C          -0.045909           
         C28       1.0000    0.45520   0.28550   0.02236   Biso      1.000     C          -0.19694  
         C29       1.0000    0.47610   0.47427   0.05590   Biso      1.000     C          -0.154713           
         C30       1.0000    0.15940   0.00620   0.60680   Biso      1.000     C          -0.163339           
         C31       1.0000    0.53000   0.91660   0.25310   Biso      1.000     C          -0.045909           
         C32       1.0000    0.99280   0.73284   0.32564   Biso      1.000     C          0.620836  
         C33       1.0000    0.77190   0.20910   0.09179   Biso      1.000     C          -0.196491           
         C34       1.0000    0.58100   0.18240   0.04291   Biso      1.000     C          -0.195367           
         C35       1.0000    0.36570   0.68640   0.92600   Biso      1.000     C          -0.199459           
         C36       1.0000    0.84680   0.51790   0.55230   Biso      1.000     C          0.096324  
         C37       1.0000    0.38040   0.61770   0.59520   Biso      1.000     C          -0.143647           
         C38       1.0000    0.13430   0.68640   0.42600   Biso      1.000     C          -0.199459           
         C39       1.0000    0.04160   0.77655   0.50929   Biso      1.000     C          -0.114946           
         C40       1.0000    0.68320   0.53490   0.61090   Biso      1.000     C          -0.164269           
         C41       1.0000    0.04480   0.28550   0.52236   Biso      1.000     C          -0.19694  
         C42       1.0000    0.54160   0.22345   0.99071   Biso      1.000     C          -0.114946           
         C43       1.0000    0.52390   0.52573   0.94410   Biso      1.000     C          -0.154713           
         C44       1.0000    0.41900   0.81760   0.95709   Biso      1.000     C          -0.195367           
         C45       1.0000    0.97110   0.04740   0.96640   Biso      1.000     C          -0.149072           
         C46       1.0000    0.34170   0.09770   0.19070   Biso      1.000     C          0.090022  
         C47       1.0000    0.84170   0.90230   0.30930   Biso      1.000     C          0.090022  
         C48       1.0000    0.91900   0.18240   0.54291   Biso      1.000     C          -0.195367           
         C49       1.0000    0.12590   0.67810   0.11540   Biso      1.000     C          -0.016817           
         C50       1.0000    0.36430   0.19810   0.93852   Biso      1.000     C          0.615621  
         C51       1.0000    0.62590   0.32190   0.38460   Biso      1.000     C          -0.016817           
         C52       1.0000    0.17530   0.45630   0.50390   Biso      1.000     C          -0.147118           
         C53       1.0000    0.72810   0.20910   0.59179   Biso      1.000     C          -0.196491           
         C54       1.0000    0.02890   0.95260   0.03360   Biso      1.000     C          -0.149076           
         C55       1.0000    0.32470   0.45630   0.00390   Biso      1.000     C          -0.147113           
         C56       1.0000    0.16630   0.00270   0.05150   Biso      1.000     C          0.09428   
         C57       1.0000    0.13570   0.19810   0.43852   Biso      1.000     C          0.61562   
         C58       1.0000    0.67530   0.54370   0.99610   Biso      1.000     C          -0.147112           
         C59       1.0000    0.31680   0.46510   0.38910   Biso      1.000     C          -0.16427  
         C60       1.0000    0.65320   0.51790   0.05230   Biso      1.000     C          0.096328  
         C61       1.0000    0.86430   0.80190   0.56148   Biso      1.000     C          0.615621  
         C62       1.0000    0.08100   0.81760   0.45709   Biso      1.000     C          -0.195366           
         C63       1.0000    0.34060   0.00620   0.10680   Biso      1.000     C          -0.16334  
         C64       1.0000    0.22810   0.79090   0.90821   Biso      1.000     C          -0.196491           
         C65       1.0000    0.95000   0.96490   0.79940   Biso      1.000     C          -0.134433           
         C66       1.0000    0.15320   0.48210   0.44770   Biso      1.000     C          0.096324  
         C67       1.0000    0.81680   0.53490   0.11090   Biso      1.000     C          -0.16427  
         C68       1.0000    0.63430   0.31360   0.07400   Biso      1.000     C          -0.199459           
         C69       1.0000    0.86570   0.31360   0.57400   Biso      1.000     C          -0.199459           
         C70       1.0000    0.80560   0.27170   0.62461   Biso      1.000     C          -0.114974           
         C71       1.0000    0.69440   0.27170   0.12461   Biso      1.000     C          -0.114974           
         C72       1.0000    0.97610   0.52573   0.44410   Biso      1.000     C          -0.154703           
         C73       1.0000    0.27190   0.79090   0.40821   Biso      1.000     C          -0.196491           
         C74       1.0000    0.19440   0.72830   0.37539   Biso      1.000     C          -0.114974           
         C75       1.0000    0.66630   0.99730   0.44850   Biso      1.000     C          0.094276  
         C76       1.0000    0.37410   0.67810   0.61540   Biso      1.000     C          -0.016817           
         C77       1.0000    0.02390   0.47427   0.55590   Biso      1.000     C          -0.154703           
         C78       1.0000    0.03000   0.08340   0.24690   Biso      1.000     C          -0.045909           
         C79       1.0000    0.45840   0.77655   0.00929   Biso      1.000     C          -0.114945           
         C80       1.0000    0.95840   0.22345   0.49071   Biso      1.000     C          -0.114945           
         C81       1.0000    0.86510   0.94960   0.98320   Biso      1.000     C          -0.134144           
         C82       1.0000    0.49280   0.26716   0.17436   Biso      1.000     C          0.620835  
         C83       1.0000    0.83370   0.99730   0.94850   Biso      1.000     C          0.09428   
         C84       1.0000    0.30560   0.72830   0.87539   Biso      1.000     C          -0.114974           
         C85       1.0000    0.15830   0.09770   0.69070   Biso      1.000     C          0.090022  
         C86       1.0000    0.65830   0.90230   0.80930   Biso      1.000     C          0.090022  
         C87       1.0000    0.63490   0.94960   0.48320   Biso      1.000     C          -0.134141           
         C88       1.0000    0.34680   0.48210   0.94770   Biso      1.000     C          0.096329  
         H1        1.0000    0.79220   0.57330   0.99300   Biso      1.000     H          0.122448  
         H2        1.0000    0.73740   0.40510   0.42890   Biso      1.000     H          0.117784  
         H3        1.0000    0.87020   0.03430   0.38260   Biso      1.000     H          0.128086  
         H4        1.0000    0.78340   0.32370   0.05290   Biso      1.000     H          0.088367  
         H5        1.0000    0.29740   0.28140   0.04220   Biso      1.000     H          0.104281  
         H6        1.0000    0.20550   0.81770   0.87550   Biso      1.000     H          0.095628  
         H7        1.0000    0.71660   0.32370   0.55290   Biso      1.000     H          0.088367  
         H8        1.0000    0.36620   0.85720   0.97720   Biso      1.000     H          0.093377  
         H9        1.0000    0.63380   0.14280   0.02280   Biso      1.000     H          0.093377  
         H10       1.0000    0.45400   0.91940   0.55600   Biso      1.000     H          0.11949   
         H11       1.0000    0.99410   0.97780   0.40630   Biso      1.000     H          0.124982  
         H12       1.0000    0.13380   0.85720   0.47720   Biso      1.000     H          0.093377  
         H13       1.0000    0.43420   0.64910   0.90420   Biso      1.000     H          0.086974  
         H14       1.0000    0.19860   0.77120   0.53010   Biso      1.000     H          0.090833  
         H15       1.0000    0.21660   0.67630   0.94710   Biso      1.000     H          0.088368  
         H16       1.0000    0.04110   0.45680   0.59390   Biso      1.000     H          0.12385   
         H17       1.0000    0.95400   0.08060   0.94400   Biso      1.000     H          0.11949   
         H18       1.0000    0.62980   0.03430   0.88260   Biso      1.000     H          0.128087  
         H19       1.0000    0.54600   0.08060   0.44400   Biso      1.000     H          0.119491  
         H20       1.0000    0.44640   0.99810   0.30560   Biso      1.000     H          0.127096  
         H21       1.0000    0.57110   0.82250   0.93480   Biso      1.000     H          0.093279  
         H22       1.0000    0.54110   0.54320   0.90610   Biso      1.000     H          0.12385   
         H23       1.0000    0.76260   0.40510   0.92890   Biso      1.000     H          0.117783  
         H24       1.0000    0.83600   0.28930   0.14880   Biso      1.000     H          0.103192  
         H25       1.0000    0.45550   0.49220   0.39230   Biso      1.000     H          0.127519  
         H26       1.0000    0.72610   0.91460   0.47250   Biso      1.000     H          0.116515  
         H27       1.0000    0.25270   0.70380   0.10760   Biso      1.000     H          0.120153  
         H28       1.0000    0.26260   0.59490   0.57110   Biso      1.000     H          0.117784  
         H29       1.0000    0.02000   0.11500   0.67520   Biso      1.000     H          0.098723  
         H30       1.0000    0.75270   0.29620   0.39240   Biso      1.000     H          0.120153  
         H31       1.0000    0.20260   0.28140   0.54220   Biso      1.000     H          0.104281  
         H32       1.0000    0.50590   0.97780   0.90630   Biso      1.000     H          0.124982  
         H33       1.0000    0.27240   0.47100   0.85020   Biso      1.000     H          0.132382  
         H34       1.0000    0.20780   0.42670   0.00700   Biso      1.000     H          0.122448  
         H35       1.0000    0.77240   0.52900   0.64980   Biso      1.000     H          0.132381  
         H36       1.0000    0.72760   0.52900   0.14980   Biso      1.000     H          0.132383  
         H37       1.0000    0.79740   0.71860   0.45780   Biso      1.000     H          0.10428   
         H38       1.0000    0.42890   0.17750   0.06520   Biso      1.000     H          0.093279  
         H39       1.0000    0.56580   0.35090   0.09580   Biso      1.000     H          0.086973  
         H40       1.0000    0.52000   0.88500   0.82480   Biso      1.000     H          0.098723  
         H41       1.0000    0.56300   0.68790   0.01060   Biso      1.000     H          0.080624  
         H42       1.0000    0.16400   0.71070   0.85120   Biso      1.000     H          0.103191  
         H43       1.0000    0.22760   0.47100   0.35020   Biso      1.000     H          0.132382  
         H44       1.0000    0.86620   0.14280   0.52280   Biso      1.000     H          0.093377  
         H45       1.0000    0.35980   0.35630   0.83070   Biso      1.000     H          0.094986  
         H46       1.0000    0.57410   0.21230   0.56980   Biso      1.000     H          0.106994  
         H47       1.0000    0.09120   0.91110   0.72170   Biso      1.000     H          0.113835  
         H48       1.0000    0.79450   0.18230   0.12450   Biso      1.000     H          0.095628  
         H49       1.0000    0.00590   0.02220   0.59370   Biso      1.000     H          0.124981  
         H50       1.0000    0.77390   0.91460   0.97250   Biso      1.000     H          0.116515  
         H51       1.0000    0.29450   0.81770   0.37550   Biso      1.000     H          0.095628  
         H52       1.0000    0.45890   0.45680   0.09390   Biso      1.000     H          0.123849  
         H53       1.0000    0.23740   0.59490   0.07110   Biso      1.000     H          0.117784  
         H54       1.0000    0.27390   0.08540   0.52750   Biso      1.000     H          0.116515  
         H55       1.0000    0.04450   0.49220   0.89230   Biso      1.000     H          0.127518  
         H56       1.0000    0.54450   0.50780   0.60770   Biso      1.000     H          0.127518  
         H57       1.0000    0.30140   0.77120   0.03010   Biso      1.000     H          0.090833  
         H58       1.0000    0.85980   0.64370   0.66930   Biso      1.000     H          0.094986  
         H59       1.0000    0.93420   0.35090   0.59580   Biso      1.000     H          0.086973  
         H60       1.0000    0.06580   0.64910   0.40420   Biso      1.000     H          0.086973  
         H61       1.0000    0.70780   0.57330   0.49300   Biso      1.000     H          0.122448  
         H62       1.0000    0.04600   0.91940   0.05600   Biso      1.000     H          0.11949   
         H63       1.0000    0.29220   0.42670   0.50700   Biso      1.000     H          0.122448  
         H64       1.0000    0.14020   0.35630   0.33070   Biso      1.000     H          0.094986  
         H65       1.0000    0.05360   0.99810   0.80560   Biso      1.000     H          0.127095  
         H66       1.0000    0.48000   0.11500   0.17520   Biso      1.000     H          0.098723  
         H67       1.0000    0.12980   0.96570   0.61740   Biso      1.000     H          0.128086  
         H68       1.0000    0.22610   0.08540   0.02750   Biso      1.000     H          0.116516  
         H69       1.0000    0.66400   0.28930   0.64880   Biso      1.000     H          0.103191  
         H70       1.0000    0.40880   0.91110   0.22170   Biso      1.000     H          0.113834  
         H71       1.0000    0.55360   0.00190   0.69440   Biso      1.000     H          0.127096  
         H72       1.0000    0.42590   0.78770   0.43020   Biso      1.000     H          0.106994  
         H73       1.0000    0.80140   0.22880   0.46990   Biso      1.000     H          0.090833  
         H74       1.0000    0.49410   0.02220   0.09370   Biso      1.000     H          0.124982  
         H75       1.0000    0.93700   0.68790   0.51060   Biso      1.000     H          0.080625  
         H76       1.0000    0.74730   0.29620   0.89240   Biso      1.000     H          0.120154  
         H77       1.0000    0.95550   0.50780   0.10770   Biso      1.000     H          0.127518  
         H78       1.0000    0.59120   0.08890   0.77830   Biso      1.000     H          0.113834  
         H79       1.0000    0.33600   0.71070   0.35120   Biso      1.000     H          0.103191  
         H80       1.0000    0.07110   0.17750   0.56520   Biso      1.000     H          0.093279  
         H81       1.0000    0.06300   0.31210   0.48940   Biso      1.000     H          0.080625  
         H82       1.0000    0.70260   0.71860   0.95780   Biso      1.000     H          0.104281  
         H83       1.0000    0.98000   0.88500   0.32480   Biso      1.000     H          0.098723  
         H84       1.0000    0.37020   0.96570   0.11740   Biso      1.000     H          0.128087  
         H85       1.0000    0.92890   0.82250   0.43480   Biso      1.000     H          0.093279  
         H86       1.0000    0.28340   0.67630   0.44710   Biso      1.000     H          0.088368  
         H87       1.0000    0.90880   0.08890   0.27830   Biso      1.000     H          0.113834  
         H88       1.0000    0.69860   0.22880   0.96990   Biso      1.000     H          0.090833  
         H89       1.0000    0.24730   0.70380   0.60760   Biso      1.000     H          0.120153  
         H90       1.0000    0.07410   0.78770   0.93020   Biso      1.000     H          0.106994  
         H91       1.0000    0.70550   0.18230   0.62450   Biso      1.000     H          0.095628  
         H92       1.0000    0.64020   0.64370   0.16930   Biso      1.000     H          0.094986  
         H93       1.0000    0.95890   0.54320   0.40610   Biso      1.000     H          0.123848  
         H94       1.0000    0.92590   0.21230   0.06980   Biso      1.000     H          0.106994  
         H95       1.0000    0.94640   0.00190   0.19440   Biso      1.000     H          0.127096  
         H96       1.0000    0.43700   0.31210   0.98940   Biso      1.000     H          0.080625  
         Mn1       1.0000    0.31180   0.21215   0.29929   Biso      1.000     Mn          0.974699  
         Mn2       1.0000    0.18820   0.21215   0.79929   Biso      1.000     Mn          0.974699  
         Mn3       1.0000    0.81180   0.78785   0.20071   Biso      1.000     Mn          0.974699  
         Mn4       1.0000    0.68820   0.78785   0.70071   Biso      1.000     Mn          0.974698  
         N1        1.0000    0.28480   0.12315   0.74049   Biso      1.000     N          -0.29549  
         N2        1.0000    0.71520   0.87685   0.25951   Biso      1.000     N          -0.29549  
         N3        1.0000    0.90500   0.59731   0.11750   Biso      1.000     N          0.069074  
         N4        1.0000    0.74890   0.95574   0.83544   Biso      1.000     N          0.077297  
         N5        1.0000    0.75110   0.95574   0.33544   Biso      1.000     N          0.077298  
         N6        1.0000    0.91720   0.69583   0.14917   Biso      1.000     N          -0.272426           
         N7        1.0000    0.09500   0.40269   0.88250   Biso      1.000     N          0.069073  
         N8        1.0000    0.78480   0.87685   0.75951   Biso      1.000     N          -0.295488           
         N9        1.0000    0.59500   0.59731   0.61750   Biso      1.000     N          0.069074  
         N10       1.0000    0.40500   0.40269   0.38250   Biso      1.000     N          0.069074  
         N11       1.0000    0.08280   0.30417   0.85083   Biso      1.000     N          -0.272425           
         N12       1.0000    0.25110   0.04426   0.16456   Biso      1.000     N          0.077298  
         N13       1.0000    0.21520   0.12315   0.24049   Biso      1.000     N          -0.29549  
         N14       1.0000    0.41720   0.30417   0.35083   Biso      1.000     N          -0.272427           
         N15       1.0000    0.24890   0.04426   0.66456   Biso      1.000     N          0.077298  
         N16       1.0000    0.58280   0.69583   0.64917   Biso      1.000     N          -0.272426           
         O1        1.0000    0.69760   0.70341   0.82704   Biso      1.000     O          -0.597007           
         O2        1.0000    0.16030   0.18131   0.95509   Biso      1.000     O          -0.582839           
         O3        1.0000    0.42830   0.19775   0.87959   Biso      1.000     O          -0.657782           
         O4        1.0000    0.80240   0.70341   0.32704   Biso      1.000     O          -0.597006           
         O5        1.0000    0.19760   0.29659   0.67296   Biso      1.000     O          -0.597007           
         O6        1.0000    0.92830   0.80225   0.62041   Biso      1.000     O          -0.657782           
         O7        1.0000    0.03580   0.76826   0.28331   Biso      1.000     O          -0.653571           
         O8        1.0000    0.46420   0.76826   0.78331   Biso      1.000     O          -0.653571           
         O9        1.0000    0.96420   0.23174   0.71669   Biso      1.000     O          -0.653571           
         O10       1.0000    0.07170   0.19775   0.37959   Biso      1.000     O          -0.657782           
         O11       1.0000    0.57170   0.80225   0.12041   Biso      1.000     O          -0.657782           
         O12       1.0000    0.66030   0.81869   0.54491   Biso      1.000     O          -0.582839           
         O13       1.0000    0.33970   0.18131   0.45509   Biso      1.000     O          -0.582839           
         O14       1.0000    0.83970   0.81869   0.04491   Biso      1.000     O          -0.582839           
         O15       1.0000    0.53580   0.23174   0.21669   Biso      1.000     O          -0.653571           
         O16       1.0000    0.30240   0.29659   0.17296   Biso      1.000     O          -0.597007 