
##########################################################################
#               Crystallographic Information Format file
#               Produced by PyCifRW module
#
#  This is a CIF file.  CIF has been adopted by the International
#  Union of Crystallography as the standard for data archiving and
#  transmission.
#
#  For information on this file format, follow the CIF links at
#  http://www.iucr.org
##########################################################################

data_image0

_cell_length_a                          8.811
_cell_length_b                          10.951
_cell_length_c                          21.944
_cell_angle_alpha                       77.152
_cell_angle_beta                        87.703
_cell_angle_gamma                       78.251
_symmetry_space_group_name_H-M          'P 1'
_symmetry_int_tables_number             1
loop_
  _symmetry_equiv_pos_as_xyz
         'x, y, z' 
loop_
  _atom_site_label
  _atom_site_occupancy
  _atom_site_fract_x
  _atom_site_fract_y
  _atom_site_fract_z
  _atom_site_thermal_displace_type
  _atom_site_B_iso_or_equiv
  _atom_site_type_symbol
  _atom_site_charge
         C1        1.0000    0.43500   0.03680   0.71810   Biso      1.000     C          -0.140009           
         C2        1.0000    0.10500   0.77160   0.14050   Biso      1.000     C          -0.127387           
         C3        1.0000    0.12000   0.52530   0.87460   Biso      1.000     C          -0.126046           
         C4        1.0000    0.16500   0.60840   0.24080   Biso      1.000     C          -0.13961600000000002          
         C5        1.0000    0.09600   0.47870   0.05150   Biso      1.000     C          0.17675   
         C6        1.0000    0.68670   0.79970   0.06100   Biso      1.000     C          -0.24379699999999999          
         C7        1.0000    0.04800   0.21990   0.76280   Biso      1.000     C          -0.155615           
         C8        1.0000    0.49700   0.58400   0.60300   Biso      1.000     C          0.595958  
         C9        1.0000    0.47640   0.96010   0.23330   Biso      1.000     C          0.11769500000000001           
         C10       1.0000    0.49620   0.98430   0.83220   Biso      1.000     C          -0.11381300000000001          
         C11       1.0000    0.58100   0.25900   0.57960   Biso      1.000     C          0.58926   
         C12       1.0000    0.86300   0.43560   0.69630   Biso      1.000     C          -0.097902           
         C13       1.0000    0.24310   0.75260   0.11450   Biso      1.000     C          -0.155091           
         C14       1.0000    0.50380   0.01570   0.16780   Biso      1.000     C          -0.11381300000000001          
         C15       1.0000    0.80680   0.13570   0.06030   Biso      1.000     C          0.191443  
         C16       1.0000    0.89500   0.22840   0.85950   Biso      1.000     C          -0.127387           
         C17       1.0000    0.01500   0.62900   0.33080   Biso      1.000     C          -0.004012           
         C18       1.0000    0.90400   0.52130   0.94850   Biso      1.000     C          0.176754  
         C19       1.0000    0.29380   0.56700   0.78550   Biso      1.000     C          0.12169   
         C20       1.0000    0.84190   0.50520   0.00920   Biso      1.000     C          -0.234039           
         C21       1.0000    0.52360   0.03990   0.76670   Biso      1.000     C          0.11770499999999999           
         C22       1.0000    0.65540   0.11860   0.07880   Biso      1.000     C          0.056807  
         C23       1.0000    0.34100   0.82530   0.30740   Biso      1.000     C          -0.092468           
         C24       1.0000    0.99200   0.57800   0.40250   Biso      1.000     C          0.625173  
         C25       1.0000    0.45300   0.66000   0.70680   Biso      1.000     C          -0.099487           
         C26       1.0000    0.93150   0.87940   0.90930   Biso      1.000     C          -0.244903           
         C27       1.0000    0.65900   0.17470   0.69260   Biso      1.000     C          -0.092468           
         C28       1.0000    0.06300   0.51720   0.94080   Biso      1.000     C          0.042049  
         C29       1.0000    0.75690   0.24740   0.88550   Biso      1.000     C          -0.155089           
         C30       1.0000    0.92380   0.28140   0.79250   Biso      1.000     C          0.10664000000000001           
         C31       1.0000    0.26100   0.50000   0.74650   Biso      1.000     C          -0.140811           
         C32       1.0000    0.45690   0.85400   0.96580   Biso      1.000     C          -0.29190900000000003          
         C33       1.0000    0.73900   0.50000   0.25350   Biso      1.000     C          -0.140853           
         C34       1.0000    0.16400   0.82390   0.00300   Biso      1.000     C          -0.289308           
         C35       1.0000    0.57530   0.18750   0.97020   Biso      1.000     C          0.191432  
         C36       1.0000    0.37430   0.93080   0.85450   Biso      1.000     C          -0.151812           
         C37       1.0000    0.77700   0.43690   0.15070   Biso      1.000     C          -0.098311           
         C38       1.0000    0.70620   0.43300   0.21450   Biso      1.000     C          0.12173699999999998           
         C39       1.0000    0.43200   0.82490   0.35450   Biso      1.000     C          0.016928  
         C40       1.0000    0.57700   0.41300   0.33160   Biso      1.000     C          0.010318  
         C41       1.0000    0.67000   0.48800   0.31090   Biso      1.000     C          -0.100824           
         C42       1.0000    0.34460   0.88140   0.92120   Biso      1.000     C          0.05682   
         C43       1.0000    0.92100   0.73600   0.29820   Biso      1.000     C          -0.090461           
         C44       1.0000    0.93700   0.48280   0.05920   Biso      1.000     C          0.042043000000000004          
         C45       1.0000    0.33000   0.51200   0.68910   Biso      1.000     C          -0.100885           
         C46       1.0000    0.22300   0.56310   0.84930   Biso      1.000     C          -0.098139           
         C47       1.0000    0.56500   0.96320   0.28190   Biso      1.000     C          -0.139998           
         C48       1.0000    0.13700   0.56440   0.30370   Biso      1.000     C          -0.09788999999999999          
         C49       1.0000    0.00800   0.42200   0.59750   Biso      1.000     C          0.625171  
         C50       1.0000    0.54700   0.34000   0.29320   Biso      1.000     C          -0.099468           
         C51       1.0000    0.36200   0.89080   0.24680   Biso      1.000     C          -0.141854           
         C52       1.0000    0.42470   0.81250   0.02980   Biso      1.000     C          0.191432  
         C53       1.0000    0.15810   0.49480   0.99080   Biso      1.000     C          -0.234029           
         C54       1.0000    0.62570   0.06920   0.14550   Biso      1.000     C          -0.151811           
         C55       1.0000    0.72680   0.20430   0.95210   Biso      1.000     C          0.054546000000000004          
         C56       1.0000    0.42300   0.58700   0.66840   Biso      1.000     C          0.010381  
         C57       1.0000    0.50300   0.41600   0.39700   Biso      1.000     C          0.595963  
         C58       1.0000    0.56800   0.17510   0.64550   Biso      1.000     C          0.016928  
         C59       1.0000    0.54310   0.14600   0.03420   Biso      1.000     C          -0.29189499999999996          
         C60       1.0000    0.83600   0.17610   0.99700   Biso      1.000     C          -0.289283           
         C61       1.0000    0.83500   0.39160   0.75920   Biso      1.000     C          -0.13960699999999998          
         C62       1.0000    0.07900   0.26400   0.70180   Biso      1.000     C          -0.090459           
         C63       1.0000    0.63800   0.10920   0.75320   Biso      1.000     C          -0.141855           
         C64       1.0000    0.88000   0.47470   0.12540   Biso      1.000     C          -0.125876           
         C65       1.0000    0.07620   0.71860   0.20750   Biso      1.000     C          0.106644  
         C66       1.0000    0.41900   0.74100   0.42040   Biso      1.000     C          0.58926   
         C67       1.0000    0.54700   0.89670   0.34170   Biso      1.000     C          -0.08579500000000001          
         C68       1.0000    0.98500   0.37100   0.66920   Biso      1.000     C          -0.003994           
         C69       1.0000    0.19320   0.86430   0.93970   Biso      1.000     C          0.191446  
         C70       1.0000    0.36300   0.46200   0.08840   Biso      1.000     C          0.058145  
         C71       1.0000    0.95200   0.78010   0.23720   Biso      1.000     C          -0.155604           
         C72       1.0000    0.06850   0.12060   0.09070   Biso      1.000     C          -0.244903           
         C73       1.0000    0.38600   0.65160   0.76440   Biso      1.000     C          -0.17266700000000001          
         C74       1.0000    0.63700   0.53800   0.91160   Biso      1.000     C          0.05814299999999999           
         C75       1.0000    0.27320   0.79570   0.04790   Biso      1.000     C          0.054568  
         C76       1.0000    0.31330   0.20030   0.93900   Biso      1.000     C          -0.24379699999999999          
         C77       1.0000    0.61400   0.34840   0.23560   Biso      1.000     C          -0.172672           
         C78       1.0000    0.45300   0.10330   0.65830   Biso      1.000     C          -0.085793           
         H1        1.0000    0.88760   0.85410   0.21450   Biso      1.000     H          0.103155  
         H2        1.0000    0.74060   0.21990   0.68460   Biso      1.000     H          0.108602  
         H3        1.0000    0.57040   0.98590   0.86150   Biso      1.000     H          0.101998  
         H4        1.0000    0.38720   0.10030   0.62620   Biso      1.000     H          0.128359  
         H5        1.0000    0.25940   0.78010   0.31540   Biso      1.000     H          0.108602  
         H6        1.0000    0.93960   0.50650   0.15050   Biso      1.000     H          0.103277  
         H7        1.0000    0.44170   0.13710   0.04630   Biso      1.000     H          0.134054  
         H8        1.0000    0.73030   0.74270   0.03380   Biso      1.000     H          0.116802  
         H9        1.0000    0.59580   0.29400   0.21020   Biso      1.000     H          0.096384  
         H10       1.0000    0.30280   0.92460   0.82530   Biso      1.000     H          0.115248  
         H11       1.0000    0.86680   0.90250   0.87210   Biso      1.000     H          0.15015499999999998           
         H12       1.0000    0.27580   0.60060   0.87430   Biso      1.000     H          0.093265  
         H13       1.0000    0.26970   0.25730   0.96620   Biso      1.000     H          0.116802  
         H14       1.0000    0.35840   0.98690   0.72580   Biso      1.000     H          0.110883  
         H15       1.0000    0.42960   0.01410   0.13850   Biso      1.000     H          0.101998  
         H16       1.0000    0.70260   0.11280   0.78550   Biso      1.000     H          0.098321  
         H17       1.0000    0.40420   0.70600   0.78980   Biso      1.000     H          0.09638200000000001           
         H18       1.0000    0.61280   0.89970   0.37380   Biso      1.000     H          0.128359  
         H19       1.0000    0.89070   0.93460   0.93760   Biso      1.000     H          0.117922  
         H20       1.0000    0.06230   0.81580   0.01510   Biso      1.000     H          0.128106  
         H21       1.0000    0.69390   0.53840   0.33730   Biso      1.000     H          0.10130700000000001           
         H22       1.0000    0.31300   0.11270   0.96040   Biso      1.000     H          0.113197  
         H23       1.0000    0.93220   0.79120   0.92990   Biso      1.000     H          0.12189100000000001           
         H24       1.0000    0.93770   0.18420   0.98490   Biso      1.000     H          0.128105  
         H25       1.0000    0.06780   0.20880   0.07010   Biso      1.000     H          0.12189100000000001           
         H26       1.0000    0.83640   0.77870   0.31780   Biso      1.000     H          0.11557200000000001           
         H27       1.0000    0.32790   0.70840   0.14050   Biso      1.000     H          0.120558  
         H28       1.0000    0.52100   0.71670   0.69370   Biso      1.000     H          0.11411900000000001           
         H29       1.0000    0.67210   0.29160   0.85950   Biso      1.000     H          0.120558  
         H30       1.0000    0.16360   0.22130   0.68220   Biso      1.000     H          0.11557200000000001           
         H31       1.0000    0.06040   0.49350   0.84950   Biso      1.000     H          0.10328699999999999           
         H32       1.0000    0.68700   0.88730   0.03960   Biso      1.000     H          0.113197  
         H33       1.0000    0.20050   0.49080   0.32710   Biso      1.000     H          0.125813  
         H34       1.0000    0.72420   0.39940   0.12570   Biso      1.000     H          0.093275  
         H35       1.0000    0.55830   0.86290   0.95370   Biso      1.000     H          0.134055  
         H36       1.0000    0.13320   0.09750   0.12790   Biso      1.000     H          0.15015499999999998           
         H37       1.0000    0.75370   0.43790   0.77910   Biso      1.000     H          0.10836900000000001           
         H38       1.0000    0.19180   0.44380   0.75810   Biso      1.000     H          0.100715  
         H39       1.0000    0.10930   0.06540   0.06240   Biso      1.000     H          0.117922  
         H40       1.0000    0.02040   0.82090   0.11550   Biso      1.000     H          0.10759200000000001           
         H41       1.0000    0.64160   0.01310   0.27420   Biso      1.000     H          0.110882  
         H42       1.0000    0.74840   0.77840   0.09890   Biso      1.000     H          0.14765799999999998           
         H43       1.0000    0.11240   0.14590   0.78550   Biso      1.000     H          0.103156  
         H44       1.0000    0.79950   0.50920   0.67290   Biso      1.000     H          0.125814  
         H45       1.0000    0.25160   0.22160   0.90110   Biso      1.000     H          0.14765899999999998           
         H46       1.0000    0.80820   0.55620   0.24190   Biso      1.000     H          0.10071799999999999           
         H47       1.0000    0.29740   0.88720   0.21450   Biso      1.000     H          0.098321  
         H48       1.0000    0.97960   0.17910   0.88450   Biso      1.000     H          0.10759200000000001           
         H49       1.0000    0.24630   0.56210   0.22090   Biso      1.000     H          0.10836900000000001           
         H50       1.0000    0.47900   0.28330   0.30630   Biso      1.000     H          0.11411800000000001           
         H51       1.0000    0.69720   0.07540   0.17470   Biso      1.000     H          0.115248  
         H52       1.0000    0.30610   0.46160   0.66270   Biso      1.000     H          0.101312  
         O1        1.0000    0.46820   0.21410   0.92360   Biso      1.000     O          -0.125615           
         O2        1.0000    0.08800   0.49290   0.43200   Biso      1.000     O          -0.571168           
         O3        1.0000    0.08620   0.89390   0.89200   Biso      1.000     O          -0.136018           
         O4        1.0000    0.60200   0.64000   0.59300   Biso      1.000     O          -0.516896           
         O5        1.0000    0.91200   0.50710   0.56800   Biso      1.000     O          -0.571167           
         O6        1.0000    0.42900   0.54060   0.56550   Biso      1.000     O          -0.628675           
         O7        1.0000    0.39800   0.36000   0.40700   Biso      1.000     O          -0.516897           
         O8        1.0000    0.69700   0.31100   0.57250   Biso      1.000     O          -0.5937520000000001           
         O9        1.0000    0.57100   0.45940   0.43450   Biso      1.000     O          -0.628677           
         O10       1.0000    0.91380   0.10610   0.10800   Biso      1.000     O          -0.136017           
         O11       1.0000    0.30300   0.68900   0.42750   Biso      1.000     O          -0.593753           
         O12       1.0000    0.53570   0.71790   0.45500   Biso      1.000     O          -0.500025           
         O13       1.0000    0.46430   0.28210   0.54500   Biso      1.000     O          -0.500026           
         O14       1.0000    0.80000   0.53740   0.90050   Biso      1.000     O          -0.09843099999999999          
         O15       1.0000    0.53180   0.78590   0.07640   Biso      1.000     O          -0.125614           
         O16       1.0000    0.13500   0.37600   0.57650   Biso      1.000     O          -0.593248           
         O17       1.0000    0.86500   0.62400   0.42350   Biso      1.000     O          -0.593249           
         O18       1.0000    0.20000   0.46260   0.09950   Biso      1.000     O          -0.098433           
         Yb1       1.0000    0.71320   0.53420   0.50482   Biso      1.000     Yb          1.363335  
         Yb2       1.0000    0.28680   0.46580   0.49518   Biso      1.000     Yb          1.363334 