
##########################################################################
#               Crystallographic Information Format file
#               Produced by PyCifRW module
#
#  This is a CIF file.  CIF has been adopted by the International
#  Union of Crystallography as the standard for data archiving and
#  transmission.
#
#  For information on this file format, follow the CIF links at
#  http://www.iucr.org
##########################################################################

data_image0

_cell_length_a                          9.2275
_cell_length_b                          9.771
_cell_length_c                          10.699
_cell_angle_alpha                       67.81
_cell_angle_beta                        84.49
_cell_angle_gamma                       61.84
_symmetry_space_group_name_H-M          'P 1'
_symmetry_int_tables_number             1
loop_
  _symmetry_equiv_pos_as_xyz
         'x, y, z' 
loop_
  _atom_site_label
  _atom_site_occupancy
  _atom_site_fract_x
  _atom_site_fract_y
  _atom_site_fract_z
  _atom_site_thermal_displace_type
  _atom_site_B_iso_or_equiv
  _atom_site_type_symbol
  _atom_site_charge
         C1        1.0000    0.01430   0.48510   0.19000   Biso      1.000     C          -0.334213           
         C2        1.0000    0.03580   0.20040   0.29650   Biso      1.000     C          -0.15909  
         C3        1.0000    0.95580   0.08860   0.32180   Biso      1.000     C          -0.348351           
         C4        1.0000    0.90340   0.08670   0.19310   Biso      1.000     C          0.737439  
         C5        1.0000    0.51060   0.09450   0.74890   Biso      1.000     C          0.715341  
         C6        1.0000    0.42380   0.11670   0.62570   Biso      1.000     C          -0.341258           
         C7        1.0000    0.54170   0.99480   0.56040   Biso      1.000     C          -0.144021           
         C8        1.0000    0.09400   0.32730   0.87730   Biso      1.000     C          0.660963  
         C9        1.0000    0.98570   0.51490   0.81000   Biso      1.000     C          -0.334213           
         C10       1.0000    0.07840   0.61580   0.78400   Biso      1.000     C          -0.157207           
         C11       1.0000    0.96420   0.79960   0.70350   Biso      1.000     C          -0.159089           
         C12       1.0000    0.04420   0.91140   0.67820   Biso      1.000     C          -0.348353           
         C13       1.0000    0.09660   0.91330   0.80690   Biso      1.000     C          0.737439  
         C14       1.0000    0.48940   0.90550   0.25110   Biso      1.000     C          0.715341  
         C15       1.0000    0.57620   0.88330   0.37430   Biso      1.000     C          -0.341258           
         C16       1.0000    0.45830   0.00520   0.43960   Biso      1.000     C          -0.144021           
         C17       1.0000    0.92160   0.38420   0.21600   Biso      1.000     C          -0.157207           
         C18       1.0000    0.90600   0.67270   0.12270   Biso      1.000     C          0.660963  
         Ce1       1.0000    0.72285   0.04384   0.98314   Biso      1.000     Ce          2.070175  
         Ce2       1.0000    0.27715   0.95616   0.01686   Biso      1.000     Ce          2.070173  
         H1        1.0000    0.92640   0.81110   0.61680   Biso      1.000     H          0.098018  
         H2        1.0000    0.10120   0.44900   0.13300   Biso      1.000     H          0.143386  
         H3        1.0000    0.06630   0.46070   0.27580   Biso      1.000     H          0.131181  
         H4        1.0000    0.88010   0.39700   0.13020   Biso      1.000     H          0.098198  
         H5        1.0000    0.82810   0.42600   0.26590   Biso      1.000     H          0.096409  
         H6        1.0000    0.13200   0.16190   0.24810   Biso      1.000     H          0.097523  
         H7        1.0000    0.86800   0.83810   0.75190   Biso      1.000     H          0.097523  
         H8        1.0000    0.85970   0.12690   0.37030   Biso      1.000     H          0.132278  
         H9        1.0000    0.03330   0.97500   0.37920   Biso      1.000     H          0.146909  
         H10       1.0000    0.32980   0.09670   0.65120   Biso      1.000     H          0.139161  
         H11       1.0000    0.38330   0.23110   0.56060   Biso      1.000     H          0.143814  
         H12       1.0000    0.58700   0.88120   0.62770   Biso      1.000     H          0.100347  
         H13       1.0000    0.07360   0.18890   0.38320   Biso      1.000     H          0.098017  
         H14       1.0000    0.89880   0.55100   0.86700   Biso      1.000     H          0.143386  
         H15       1.0000    0.93370   0.53930   0.72420   Biso      1.000     H          0.13118   
         H16       1.0000    0.11990   0.60300   0.86980   Biso      1.000     H          0.098198  
         H17       1.0000    0.17190   0.57400   0.73410   Biso      1.000     H          0.096409  
         H18       1.0000    0.36720   0.98100   0.46850   Biso      1.000     H          0.100169  
         H19       1.0000    0.41300   0.11880   0.37230   Biso      1.000     H          0.100347  
         H20       1.0000    0.61670   0.76890   0.43940   Biso      1.000     H          0.143814  
         H21       1.0000    0.67020   0.90330   0.34880   Biso      1.000     H          0.139161  
         H22       1.0000    0.96670   0.02500   0.62080   Biso      1.000     H          0.14691   
         H23       1.0000    0.14030   0.87310   0.62970   Biso      1.000     H          0.132279  
         H24       1.0000    0.63280   0.01900   0.53150   Biso      1.000     H          0.10017   
         O1        1.0000    0.99180   0.95000   0.88900   Biso      1.000     O          -0.735349           
         O2        1.0000    0.24290   0.88040   0.82740   Biso      1.000     O          -0.676353           
         O3        1.0000    0.19290   0.26550   0.97850   Biso      1.000     O          -0.632099           
         O4        1.0000    0.07850   0.23230   0.82880   Biso      1.000     O          -0.6721   
         O5        1.0000    0.47480   0.03200   0.86600   Biso      1.000     O          -0.741086           
         O6        1.0000    0.92150   0.76770   0.17120   Biso      1.000     O          -0.6721   
         O7        1.0000    0.00820   0.05000   0.11100   Biso      1.000     O          -0.735349           
         O8        1.0000    0.75710   0.11960   0.17260   Biso      1.000     O          -0.676353           
         O9        1.0000    0.80710   0.73450   0.02150   Biso      1.000     O          -0.632099           
         O10       1.0000    0.37420   0.86610   0.26490   Biso      1.000     O          -0.670182           
         O11       1.0000    0.62580   0.13390   0.73510   Biso      1.000     O          -0.670182           
         O12       1.0000    0.52520   0.96800   0.13400   Biso      1.000     O          -0.741086 