
##########################################################################
#               Crystallographic Information Format file
#               Produced by PyCifRW module
#
#  This is a CIF file.  CIF has been adopted by the International
#  Union of Crystallography as the standard for data archiving and
#  transmission.
#
#  For information on this file format, follow the CIF links at
#  http://www.iucr.org
##########################################################################

data_image0

_cell_length_a                          13.7326
_cell_length_b                          13.7326
_cell_length_c                          14.0822
_cell_angle_alpha                       87.481
_cell_angle_beta                        87.481
_cell_angle_gamma                       60.1379
_symmetry_space_group_name_H-M          'P 1'
_symmetry_int_tables_number             1
loop_
  _symmetry_equiv_pos_as_xyz
         'x, y, z' 
loop_
  _atom_site_label
  _atom_site_occupancy
  _atom_site_fract_x
  _atom_site_fract_y
  _atom_site_fract_z
  _atom_site_thermal_displace_type
  _atom_site_B_iso_or_equiv
  _atom_site_type_symbol
  _atom_site_charge
         C1        1.0000    0.11080   0.98500   0.71360   Biso      1.000     C          -0.153067           
         C2        1.0000    0.29100   0.22100   0.55870   Biso      1.000     C          0.15418199999999999           
         C3        1.0000    0.78870   0.11630   0.28440   Biso      1.000     C          -0.002245           
         C4        1.0000    0.88920   0.01500   0.28640   Biso      1.000     C          -0.153064           
         C5        1.0000    0.68290   0.11850   0.32030   Biso      1.000     C          0.594129  
         C6        1.0000    0.07650   0.46690   0.29000   Biso      1.000     C          0.126163  
         C7        1.0000    0.90350   0.52310   0.30600   Biso      1.000     C          0.125425  
         C8        1.0000    0.74980   0.63220   0.06300   Biso      1.000     C          0.14506   
         C9        1.0000    0.77900   0.70900   0.94130   Biso      1.000     C          0.15418199999999999           
         C10       1.0000    0.88370   0.21130   0.21560   Biso      1.000     C          -0.002245           
         C11       1.0000    0.98500   0.11080   0.21360   Biso      1.000     C          -0.153064           
         C12       1.0000    0.88150   0.31710   0.17970   Biso      1.000     C          0.594129  
         C13       1.0000    0.52310   0.90350   0.80600   Biso      1.000     C          0.125425  
         C14       1.0000    0.63220   0.74980   0.56300   Biso      1.000     C          0.145061  
         C15       1.0000    0.70900   0.77900   0.44130   Biso      1.000     C          0.15417999999999998           
         C16       1.0000    0.21130   0.88370   0.71560   Biso      1.000     C          -0.002242           
         C17       1.0000    0.31710   0.88150   0.67970   Biso      1.000     C          0.594129  
         C18       1.0000    0.92350   0.53310   0.71000   Biso      1.000     C          0.126164  
         C19       1.0000    0.09650   0.47690   0.69400   Biso      1.000     C          0.125424  
         C20       1.0000    0.25020   0.36780   0.93700   Biso      1.000     C          0.145061  
         C21       1.0000    0.22100   0.29100   0.05870   Biso      1.000     C          0.15417999999999998           
         C22       1.0000    0.11630   0.78870   0.78440   Biso      1.000     C          -0.002245           
         C23       1.0000    0.01500   0.88920   0.78640   Biso      1.000     C          -0.153064           
         C24       1.0000    0.11850   0.68290   0.82030   Biso      1.000     C          0.594128  
         C25       1.0000    0.78720   0.21280   0.25000   Biso      1.000     C          -0.11033499999999999          
         C26       1.0000    0.98560   0.01440   0.25000   Biso      1.000     C          0.07708   
         C27       1.0000    0.21280   0.78720   0.75000   Biso      1.000     C          -0.11033499999999999          
         C28       1.0000    0.01440   0.98560   0.75000   Biso      1.000     C          0.077079  
         C29       1.0000    0.36780   0.25020   0.43700   Biso      1.000     C          0.145059  
         C30       1.0000    0.47690   0.09650   0.19400   Biso      1.000     C          0.125425  
         C31       1.0000    0.46690   0.07650   0.79000   Biso      1.000     C          0.126163  
         C32       1.0000    0.53310   0.92350   0.21000   Biso      1.000     C          0.126163  
         H1        1.0000    0.28030   0.71970   0.75000   Biso      1.000     H          0.13000499999999998           
         H2        1.0000    0.55880   0.85180   0.23620   Biso      1.000     H          0.100006  
         H3        1.0000    0.45420   0.17060   0.20760   Biso      1.000     H          0.103913  
         H4        1.0000    0.38150   0.28550   0.38450   Biso      1.000     H          0.11055799999999999           
         H5        1.0000    0.24050   0.23090   0.60870   Biso      1.000     H          0.110018  
         H6        1.0000    0.89210   0.94970   0.31130   Biso      1.000     H          0.136157  
         H7        1.0000    0.82940   0.54580   0.29240   Biso      1.000     H          0.103913  
         H8        1.0000    0.71450   0.61850   0.11550   Biso      1.000     H          0.11055799999999999           
         H9        1.0000    0.76910   0.75950   0.89130   Biso      1.000     H          0.110018  
         H10       1.0000    0.05030   0.10790   0.18870   Biso      1.000     H          0.136157  
         H11       1.0000    0.14820   0.44120   0.26380   Biso      1.000     H          0.100006  
         H12       1.0000    0.54580   0.82940   0.79240   Biso      1.000     H          0.103913  
         H13       1.0000    0.71970   0.28030   0.25000   Biso      1.000     H          0.13000499999999998           
         H14       1.0000    0.44120   0.14820   0.76380   Biso      1.000     H          0.100006  
         H15       1.0000    0.23090   0.24050   0.10870   Biso      1.000     H          0.110018  
         H16       1.0000    0.28550   0.38150   0.88450   Biso      1.000     H          0.11055799999999999           
         H17       1.0000    0.17060   0.45420   0.70760   Biso      1.000     H          0.103913  
         H18       1.0000    0.85180   0.55880   0.73620   Biso      1.000     H          0.100006  
         H19       1.0000    0.94970   0.89210   0.81130   Biso      1.000     H          0.136157  
         H20       1.0000    0.10790   0.05030   0.68870   Biso      1.000     H          0.136157  
         H21       1.0000    0.75950   0.76910   0.39130   Biso      1.000     H          0.110018  
         H22       1.0000    0.61850   0.71450   0.61550   Biso      1.000     H          0.11055799999999999           
         N1        1.0000    0.27820   0.30140   0.49670   Biso      1.000     N          -0.223779           
         N2        1.0000    0.52210   0.93810   0.89250   Biso      1.000     N          -0.117296           
         N3        1.0000    0.48700   0.05080   0.88190   Biso      1.000     N          -0.11707200000000001          
         N4        1.0000    0.69860   0.72180   0.00330   Biso      1.000     N          -0.22378  
         N5        1.0000    0.87620   0.61560   0.95860   Biso      1.000     N          -0.19021500000000002          
         N6        1.0000    0.56633   0.85613   0.53830   Biso      1.000     N          -0.17384000000000002          
         N7        1.0000    0.85613   0.56633   0.03830   Biso      1.000     N          -0.173828           
         N8        1.0000    0.98730   0.48770   0.23950   Biso      1.000     N          -0.30454200000000003          
         N9        1.0000    0.93810   0.52210   0.39250   Biso      1.000     N          -0.117297           
         N10       1.0000    0.05080   0.48700   0.38190   Biso      1.000     N          -0.11707200000000001          
         N11       1.0000    0.48770   0.98730   0.73950   Biso      1.000     N          -0.304543           
         N12       1.0000    0.38440   0.12380   0.54140   Biso      1.000     N          -0.19021500000000002          
         N13       1.0000    0.30140   0.27820   0.99670   Biso      1.000     N          -0.22378  
         N14       1.0000    0.51230   0.01270   0.26050   Biso      1.000     N          -0.30454200000000003          
         N15       1.0000    0.47790   0.06190   0.10750   Biso      1.000     N          -0.117297           
         N16       1.0000    0.51300   0.94920   0.11810   Biso      1.000     N          -0.11707200000000001          
         N17       1.0000    0.94920   0.51300   0.61810   Biso      1.000     N          -0.11708299999999999          
         N18       1.0000    0.06190   0.47790   0.60750   Biso      1.000     N          -0.11728599999999999          
         N19       1.0000    0.01270   0.51230   0.76050   Biso      1.000     N          -0.30454200000000003          
         N20       1.0000    0.14387   0.43367   0.96170   Biso      1.000     N          -0.17383900000000002          
         N21       1.0000    0.12380   0.38440   0.04140   Biso      1.000     N          -0.19020399999999998          
         N22       1.0000    0.61560   0.87620   0.45860   Biso      1.000     N          -0.19020399999999998          
         N23       1.0000    0.09230   0.90770   0.25000   Biso      1.000     N          0.515951  
         N24       1.0000    0.90770   0.09230   0.75000   Biso      1.000     N          0.5159520000000001  
         N25       1.0000    0.43367   0.14387   0.46170   Biso      1.000     N          -0.173828           
         N26       1.0000    0.72180   0.69860   0.50330   Biso      1.000     N          -0.22378  
         O1        1.0000    0.40967   0.80087   0.69410   Biso      1.000     O          -0.570943           
         O2        1.0000    0.82220   0.09020   0.77250   Biso      1.000     O          -0.370251           
         O3        1.0000    0.30212   0.97032   0.63520   Biso      1.000     O          -0.5684319999999999           
         O4        1.0000    0.09020   0.82220   0.27250   Biso      1.000     O          -0.370251           
         O5        1.0000    0.80087   0.40967   0.19410   Biso      1.000     O          -0.570943           
         O6        1.0000    0.97032   0.30212   0.13520   Biso      1.000     O          -0.5684319999999999           
         O7        1.0000    0.17780   0.90980   0.22750   Biso      1.000     O          -0.370251           
         O8        1.0000    0.02968   0.69788   0.86480   Biso      1.000     O          -0.5684319999999999           
         O9        1.0000    0.59033   0.19913   0.30590   Biso      1.000     O          -0.570943           
         O10       1.0000    0.90980   0.17780   0.72750   Biso      1.000     O          -0.370251           
         O11       1.0000    0.19913   0.59033   0.80590   Biso      1.000     O          -0.570943           
         O12       1.0000    0.69788   0.02968   0.36480   Biso      1.000     O          -0.5684319999999999           
         Zn1       1.0000    0.02332   0.56112   0.88988   Biso      1.000     Zn          0.677181  
         Zn2       1.0000    0.84635   0.53797   0.51279   Biso      1.000     Zn          0.10253   
         Zn3       1.0000    0.43888   0.97668   0.61012   Biso      1.000     Zn          0.677182  
         Zn4       1.0000    0.46203   0.15365   0.98721   Biso      1.000     Zn          0.102529  
         Zn5       1.0000    0.97668   0.43888   0.11012   Biso      1.000     Zn          0.677179  
         Zn6       1.0000    0.15365   0.46203   0.48721   Biso      1.000     Zn          0.102528  
         Zn7       1.0000    0.56112   0.02332   0.38988   Biso      1.000     Zn          0.677179  
         Zn8       1.0000    0.53797   0.84635   0.01279   Biso      1.000     Zn          0.102528 