
##########################################################################
#               Crystallographic Information Format file
#               Produced by PyCifRW module
#
#  This is a CIF file.  CIF has been adopted by the International
#  Union of Crystallography as the standard for data archiving and
#  transmission.
#
#  For information on this file format, follow the CIF links at
#  http://www.iucr.org
##########################################################################

data_image0

_cell_length_a                          9.758
_cell_length_b                          11.89
_cell_length_c                          15.22
_cell_angle_alpha                       95.544
_cell_angle_beta                        99.068
_cell_angle_gamma                       112.874
_symmetry_space_group_name_H-M          'P 1'
_symmetry_int_tables_number             1
loop_
  _symmetry_equiv_pos_as_xyz
         'x, y, z' 
loop_
  _atom_site_label
  _atom_site_occupancy
  _atom_site_fract_x
  _atom_site_fract_y
  _atom_site_fract_z
  _atom_site_thermal_displace_type
  _atom_site_B_iso_or_equiv
  _atom_site_type_symbol
  _atom_site_charge
         C1        1.0000    0.45330   0.29330   0.32390   Biso      1.000     C          -0.113283           
         C2        1.0000    0.96930   0.12960   0.99140   Biso      1.000     C          0.175892  
         C3        1.0000    0.75760   0.01550   0.90700   Biso      1.000     C          0.161836  
         C4        1.0000    0.59380   0.36700   0.37690   Biso      1.000     C          -0.087241           
         C5        1.0000    0.62810   0.48870   0.40820   Biso      1.000     C          -0.084002           
         C6        1.0000    0.52390   0.53940   0.38680   Biso      1.000     C          -0.021517           
         C7        1.0000    0.38010   0.46290   0.33600   Biso      1.000     C          -0.114334           
         C8        1.0000    0.34360   0.34120   0.30340   Biso      1.000     C          -0.027743           
         C9        1.0000    0.19680   0.07470   0.66950   Biso      1.000     C          0.163155  
         C10       1.0000    0.56670   0.67350   0.41710   Biso      1.000     C          0.576126  
         C11       1.0000    0.38800   0.42630   0.09110   Biso      1.000     C          -0.087057           
         C12       1.0000    0.49130   0.54960   0.10740   Biso      1.000     C          -0.087617           
         C13       1.0000    0.64870   0.58260   0.13430   Biso      1.000     C          -0.018237           
         C14       1.0000    0.69900   0.48940   0.14530   Biso      1.000     C          -0.121495           
         C15       1.0000    0.59870   0.36650   0.12680   Biso      1.000     C          -0.044118           
         C16       1.0000    0.75990   0.71370   0.14790   Biso      1.000     C          0.568363  
         C17       1.0000    0.65690   0.26750   0.13560   Biso      1.000     C          0.603535  
         C18       1.0000    0.44270   0.33350   0.09880   Biso      1.000     C          -0.092543           
         C19       1.0000    0.22730   0.02700   0.38910   Biso      1.000     C          0.16477   
         C20       1.0000    0.28960   0.94850   0.70140   Biso      1.000     C          0.138755  
         C21       1.0000    0.77270   0.97300   0.61090   Biso      1.000     C          0.16477   
         C22       1.0000    0.54670   0.70670   0.67610   Biso      1.000     C          -0.113283           
         C23       1.0000    0.40620   0.63300   0.62310   Biso      1.000     C          -0.087241           
         C24       1.0000    0.37190   0.51130   0.59180   Biso      1.000     C          -0.084002           
         C25       1.0000    0.47610   0.46060   0.61320   Biso      1.000     C          -0.021517           
         C26       1.0000    0.61990   0.53710   0.66400   Biso      1.000     C          -0.114334           
         C27       1.0000    0.65640   0.65880   0.69660   Biso      1.000     C          -0.027743           
         C28       1.0000    0.43330   0.32650   0.58290   Biso      1.000     C          0.576126  
         C29       1.0000    0.72010   0.10450   0.68310   Biso      1.000     C          0.159424  
         C30       1.0000    0.81080   0.74120   0.75380   Biso      1.000     C          0.585327  
         C31       1.0000    0.61200   0.57370   0.90890   Biso      1.000     C          -0.087057           
         C32       1.0000    0.50870   0.45040   0.89260   Biso      1.000     C          -0.087617           
         C33       1.0000    0.35130   0.41740   0.86570   Biso      1.000     C          -0.018237           
         C34       1.0000    0.30100   0.51060   0.85470   Biso      1.000     C          -0.121495           
         C35       1.0000    0.40130   0.63350   0.87320   Biso      1.000     C          -0.044118           
         C36       1.0000    0.24010   0.28630   0.85210   Biso      1.000     C          0.568363  
         C37       1.0000    0.34310   0.73250   0.86440   Biso      1.000     C          0.603535  
         C38       1.0000    0.55730   0.66650   0.90120   Biso      1.000     C          -0.092543           
         C39       1.0000    0.27990   0.89550   0.31690   Biso      1.000     C          0.159424  
         C40       1.0000    0.18920   0.25880   0.24620   Biso      1.000     C          0.585327  
         C41       1.0000    0.80320   0.92530   0.33050   Biso      1.000     C          0.163155  
         C42       1.0000    0.03070   0.87040   0.00860   Biso      1.000     C          0.175892  
         C43       1.0000    0.24240   0.98450   0.09300   Biso      1.000     C          0.161836  
         C44       1.0000    0.71040   0.05150   0.29860   Biso      1.000     C          0.138755  
         H1        1.0000    0.66540   0.33440   0.39150   Biso      1.000     H          0.107479  
         H2        1.0000    0.72330   0.53830   0.44450   Biso      1.000     H          0.116558  
         H3        1.0000    0.30730   0.49480   0.32400   Biso      1.000     H          0.126098  
         H4        1.0000    0.37510   0.25040   0.08540   Biso      1.000     H          0.103714  
         H5        1.0000    0.28400   0.40530   0.07530   Biso      1.000     H          0.111663  
         H6        1.0000    0.45610   0.61120   0.10030   Biso      1.000     H          0.111615  
         H7        1.0000    0.18010   0.07830   0.40460   Biso      1.000     H          0.11212   
         H8        1.0000    0.43050   0.21110   0.30130   Biso      1.000     H          0.098442  
         H9        1.0000    0.27680   0.83520   0.27200   Biso      1.000     H          0.114628  
         H10       1.0000    0.82260   0.86340   0.35580   Biso      1.000     H          0.112354  
         H11       1.0000    0.92700   0.82330   0.98710   Biso      1.000     H          0.121384  
         H12       1.0000    0.31630   0.03380   0.14350   Biso      1.000     H          0.10359   
         H13       1.0000    0.80230   0.51040   0.16550   Biso      1.000     H          0.129534  
         H14       1.0000    0.68370   0.96620   0.85650   Biso      1.000     H          0.10359   
         H15       1.0000    0.65050   0.09620   0.29700   Biso      1.000     H          0.104099  
         H16       1.0000    0.69270   0.50520   0.67600   Biso      1.000     H          0.126098  
         H17       1.0000    0.17740   0.13660   0.64420   Biso      1.000     H          0.112354  
         H18       1.0000    0.34950   0.90380   0.70300   Biso      1.000     H          0.104099  
         H19       1.0000    0.72320   0.16480   0.72800   Biso      1.000     H          0.114628  
         H20       1.0000    0.81990   0.92170   0.59540   Biso      1.000     H          0.11212   
         H21       1.0000    0.19770   0.48960   0.83450   Biso      1.000     H          0.129534  
         H22       1.0000    0.54390   0.38880   0.89970   Biso      1.000     H          0.111616  
         H23       1.0000    0.71600   0.59470   0.92470   Biso      1.000     H          0.111663  
         H24       1.0000    0.62490   0.74960   0.91460   Biso      1.000     H          0.103714  
         H25       1.0000    0.07300   0.17670   0.01290   Biso      1.000     H          0.121384  
         H26       1.0000    0.27670   0.46170   0.55550   Biso      1.000     H          0.116558  
         H27       1.0000    0.33460   0.66560   0.60850   Biso      1.000     H          0.107478  
         H28       1.0000    0.56950   0.78890   0.69870   Biso      1.000     H          0.098442  
         N1        1.0000    0.87770   0.98520   0.27150   Biso      1.000     N          -0.178564           
         N2        1.0000    0.81600   0.06780   0.25140   Biso      1.000     N          -0.179227           
         N3        1.0000    0.69820   0.96320   0.34960   Biso      1.000     N          -0.296365           
         N4        1.0000    0.27460   0.96100   0.01420   Biso      1.000     N          -0.214366           
         N5        1.0000    0.34570   0.02380   0.44190   Biso      1.000     N          -0.188211           
         N6        1.0000    0.18220   0.94840   0.31060   Biso      1.000     N          -0.292817           
         N7        1.0000    0.72540   0.03900   0.98580   Biso      1.000     N          -0.214366           
         N8        1.0000    0.38190   0.93810   0.39390   Biso      1.000     N          -0.197661           
         N9        1.0000    0.09290   0.93080   0.09380   Biso      1.000     N          -0.280106           
         N10       1.0000    0.65430   0.97620   0.55810   Biso      1.000     N          -0.188211           
         N11       1.0000    0.12230   0.01480   0.72850   Biso      1.000     N          -0.178564           
         N12       1.0000    0.18400   0.93220   0.74860   Biso      1.000     N          -0.179227           
         N13       1.0000    0.30180   0.03680   0.65040   Biso      1.000     N          -0.296366           
         N14       1.0000    0.61810   0.06190   0.60610   Biso      1.000     N          -0.197661           
         N15       1.0000    0.86590   0.11460   0.04150   Biso      1.000     N          -0.184701           
         N16       1.0000    0.81780   0.05160   0.68940   Biso      1.000     N          -0.292817           
         N17       1.0000    0.13410   0.88540   0.95850   Biso      1.000     N          -0.184701           
         N18       1.0000    0.90710   0.06920   0.90620   Biso      1.000     N          -0.280106           
         O1        1.0000    0.46070   0.71170   0.39470   Biso      1.000     O          -0.563587           
         O2        1.0000    0.69380   0.74420   0.46030   Biso      1.000     O          -0.565222           
         O3        1.0000    0.84270   0.84970   0.78260   Biso      1.000     O          -0.60048  
         O4        1.0000    0.27210   0.20870   0.89150   Biso      1.000     O          -0.603881           
         O5        1.0000    0.10820   0.25680   0.80310   Biso      1.000     O          -0.57424  
         O6        1.0000    0.19980   0.69250   0.83240   Biso      1.000     O          -0.507877           
         O7        1.0000    0.42760   0.84370   0.88880   Biso      1.000     O          -0.616939           
         O8        1.0000    0.09590   0.30950   0.22740   Biso      1.000     O          -0.538686           
         O9        1.0000    0.90410   0.69050   0.77260   Biso      1.000     O          -0.538686           
         O10       1.0000    0.15730   0.15030   0.21740   Biso      1.000     O          -0.60048  
         O11       1.0000    0.30620   0.25580   0.53970   Biso      1.000     O          -0.565222           
         O12       1.0000    0.89180   0.74320   0.19690   Biso      1.000     O          -0.57424  
         O13       1.0000    0.80020   0.30750   0.16760   Biso      1.000     O          -0.507877           
         O14       1.0000    0.57240   0.15630   0.11120   Biso      1.000     O          -0.616939           
         O15       1.0000    0.53930   0.28830   0.60530   Biso      1.000     O          -0.563587           
         O16       1.0000    0.72790   0.79130   0.10850   Biso      1.000     O          -0.603881           
         Zn1       1.0000    0.50000   0.00000   0.00000   Biso      1.000     Zn          0.931134  
         Zn2       1.0000    0.89116   0.18813   0.16921   Biso      1.000     Zn          0.734637  
         Zn3       1.0000    0.44287   0.10923   0.56858   Biso      1.000     Zn          0.667249  
         Zn4       1.0000    0.99014   0.07190   0.79451   Biso      1.000     Zn          0.744203  
         Zn5       1.0000    0.10884   0.81187   0.83079   Biso      1.000     Zn          0.734637  
         Zn6       1.0000    0.55713   0.89077   0.43142   Biso      1.000     Zn          0.667249  
         Zn7       1.0000    0.00986   0.92810   0.20549   Biso      1.000     Zn          0.744202 