
##########################################################################
#               Crystallographic Information Format file
#               Produced by PyCifRW module
#
#  This is a CIF file.  CIF has been adopted by the International
#  Union of Crystallography as the standard for data archiving and
#  transmission.
#
#  For information on this file format, follow the CIF links at
#  http://www.iucr.org
##########################################################################

data_image0

_cell_length_a                          11.232
_cell_length_b                          11.361
_cell_length_c                          17.072
_cell_angle_alpha                       97.95
_cell_angle_beta                        108.889
_cell_angle_gamma                       91.409
_symmetry_space_group_name_H-M          'P 1'
_symmetry_int_tables_number             1
loop_
  _symmetry_equiv_pos_as_xyz
         'x, y, z' 
loop_
  _atom_site_label
  _atom_site_occupancy
  _atom_site_fract_x
  _atom_site_fract_y
  _atom_site_fract_z
  _atom_site_thermal_displace_type
  _atom_site_B_iso_or_equiv
  _atom_site_type_symbol
  _atom_site_charge
         C1        1.0000    0.64440   0.56410   0.33400   Biso      1.000     C          -0.018922           
         C2        1.0000    0.37350   0.96620   0.17120   Biso      1.000     C          -0.008933           
         C3        1.0000    0.42030   0.98270   0.25700   Biso      1.000     C          -0.10599  
         C4        1.0000    0.34300   0.01660   0.30370   Biso      1.000     C          -0.042991           
         C5        1.0000    0.21030   0.02750   0.25830   Biso      1.000     C          -0.089549           
         C6        1.0000    0.12920   0.07810   0.30940   Biso      1.000     C          0.603639  
         C7        1.0000    0.34660   0.31960   0.27940   Biso      1.000     C          -0.088358           
         C8        1.0000    0.22170   0.34430   0.23550   Biso      1.000     C          -0.123562           
         C9        1.0000    0.18350   0.32310   0.14990   Biso      1.000     C          -0.01486  
         C10       1.0000    0.29830   0.23370   0.66030   Biso      1.000     C          -0.003177           
         C11       1.0000    0.25290   0.11760   0.60070   Biso      1.000     C          0.580417  
         C12       1.0000    0.32360   0.25170   0.74770   Biso      1.000     C          -0.104027           
         C13       1.0000    0.16940   0.00580   0.17580   Biso      1.000     C          0.020395  
         C14       1.0000    0.28990   0.15420   0.78950   Biso      1.000     C          0.60083   
         C15       1.0000    0.39340   0.45910   0.75270   Biso      1.000     C          -0.117627           
         C16       1.0000    0.35560   0.43590   0.66600   Biso      1.000     C          -0.018923           
         C17       1.0000    0.04530   0.55310   0.62550   Biso      1.000     C          0.595544  
         C18       1.0000    0.03960   0.45670   0.67630   Biso      1.000     C          0.020826  
         C19       1.0000    0.06190   0.47690   0.76200   Biso      1.000     C          -0.06583  
         C20       1.0000    0.05090   0.38200   0.80120   Biso      1.000     C          -0.0427   
         C21       1.0000    0.01570   0.26650   0.75500   Biso      1.000     C          -0.095677           
         C22       1.0000    0.99930   0.24740   0.66910   Biso      1.000     C          -0.037202           
         C23       1.0000    0.10060   0.59700   0.80690   Biso      1.000     C          0.608597  
         C24       1.0000    0.55820   0.25230   0.28540   Biso      1.000     C          0.634917  
         C25       1.0000    0.42710   0.27850   0.23620   Biso      1.000     C          -0.094085           
         C26       1.0000    0.36040   0.36620   0.79330   Biso      1.000     C          -0.085301           
         C27       1.0000    0.03770   0.02320   0.12310   Biso      1.000     C          0.605373  
         C28       1.0000    0.70170   0.76630   0.33970   Biso      1.000     C          -0.003177           
         C29       1.0000    0.74710   0.88240   0.39930   Biso      1.000     C          0.580418  
         C30       1.0000    0.96230   0.97680   0.87690   Biso      1.000     C          0.605374  
         C31       1.0000    0.83060   0.99420   0.82420   Biso      1.000     C          0.020391  
         C32       1.0000    0.62650   0.03380   0.82880   Biso      1.000     C          -0.008933           
         C33       1.0000    0.57970   0.01730   0.74300   Biso      1.000     C          -0.10599  
         C34       1.0000    0.65700   0.98340   0.69630   Biso      1.000     C          -0.042992           
         C35       1.0000    0.78970   0.97250   0.74170   Biso      1.000     C          -0.089544           
         C36       1.0000    0.87080   0.92190   0.69060   Biso      1.000     C          0.603639  
         C37       1.0000    0.65340   0.68040   0.72060   Biso      1.000     C          -0.088358           
         C38       1.0000    0.77830   0.65570   0.76450   Biso      1.000     C          -0.123563           
         C39       1.0000    0.81650   0.67690   0.85010   Biso      1.000     C          -0.01486  
         C40       1.0000    0.61530   0.73380   0.84940   Biso      1.000     C          -0.008758           
         C41       1.0000    0.53740   0.76460   0.90630   Biso      1.000     C          0.565861  
         C42       1.0000    0.57290   0.72150   0.76380   Biso      1.000     C          -0.094085           
         C43       1.0000    0.44180   0.74770   0.71460   Biso      1.000     C          0.634917  
         C44       1.0000    0.89940   0.40300   0.19310   Biso      1.000     C          0.608597  
         C45       1.0000    0.00070   0.75260   0.33090   Biso      1.000     C          -0.037202           
         C46       1.0000    0.98430   0.73350   0.24500   Biso      1.000     C          -0.095677           
         C47       1.0000    0.94910   0.61800   0.19880   Biso      1.000     C          -0.042705           
         C48       1.0000    0.93810   0.52310   0.23800   Biso      1.000     C          -0.065827           
         C49       1.0000    0.96040   0.54330   0.32370   Biso      1.000     C          0.020828  
         C50       1.0000    0.95470   0.44690   0.37450   Biso      1.000     C          0.595544  
         C51       1.0000    0.60660   0.54090   0.24730   Biso      1.000     C          -0.117629           
         C52       1.0000    0.63960   0.63380   0.20670   Biso      1.000     C          -0.085301           
         C53       1.0000    0.71010   0.84580   0.21050   Biso      1.000     C          0.60083   
         C54       1.0000    0.67640   0.74830   0.25230   Biso      1.000     C          -0.104028           
         C55       1.0000    0.46260   0.23540   0.09370   Biso      1.000     C          0.565861  
         C56       1.0000    0.38470   0.26620   0.15060   Biso      1.000     C          -0.008759           
         Cd1       1.0000    0.08487   0.22571   0.46080   Biso      1.000     Cd          1.061477  
         Cd2       1.0000    0.81750   0.13304   0.24990   Biso      1.000     Cd          1.176205  
         Cd3       1.0000    0.78499   0.28570   0.45140   Biso      1.000     Cd          1.073997  
         Cd4       1.0000    0.17571   0.79405   0.95610   Biso      1.000     Cd          1.061782  
         Cd5       1.0000    0.18250   0.86696   0.75010   Biso      1.000     Cd          1.176205  
         Cd6       1.0000    0.25023   0.08766   0.95624   Biso      1.000     Cd          1.067879  
         Cd7       1.0000    0.91513   0.77429   0.53920   Biso      1.000     Cd          1.061477  
         Cd8       1.0000    0.21501   0.71430   0.54860   Biso      1.000     Cd          1.073997  
         Cd9       1.0000    0.82429   0.20595   0.04390   Biso      1.000     Cd          1.061782  
         Cd10      1.0000    0.74977   0.91234   0.04376   Biso      1.000     Cd          1.067879  
         H1        1.0000    0.98470   0.17080   0.63890   Biso      1.000     H          0.149737  
         H2        1.0000    0.00330   0.20310   0.78130   Biso      1.000     H          0.141152  
         H3        1.0000    0.06680   0.39370   0.85880   Biso      1.000     H          0.141795  
         H4        1.0000    0.12260   0.92360   0.59220   Biso      1.000     H          0.386223  
         H5        1.0000    0.43740   0.53030   0.78300   Biso      1.000     H          0.132093  
         H6        1.0000    0.36340   0.38230   0.84880   Biso      1.000     H          0.142983  
         H7        1.0000    0.10060   0.33380   0.11920   Biso      1.000     H          0.114274  
         H8        1.0000    0.35670   0.49780   0.63580   Biso      1.000     H          0.115586  
         H9        1.0000    0.16780   0.37380   0.26370   Biso      1.000     H          0.131303  
         H10       1.0000    0.37510   0.33090   0.33760   Biso      1.000     H          0.1349    
         H11       1.0000    0.99670   0.79690   0.21870   Biso      1.000     H          0.141152  
         H12       1.0000    0.62550   0.96820   0.63810   Biso      1.000     H          0.148431  
         H13       1.0000    0.62490   0.66910   0.66240   Biso      1.000     H          0.1349    
         H14       1.0000    0.83220   0.62620   0.73630   Biso      1.000     H          0.131303  
         H15       1.0000    0.89940   0.66620   0.88080   Biso      1.000     H          0.114274  
         H16       1.0000    0.01530   0.82920   0.36110   Biso      1.000     H          0.149737  
         H17       1.0000    0.37450   0.03180   0.36190   Biso      1.000     H          0.148431  
         H18       1.0000    0.93320   0.60630   0.14120   Biso      1.000     H          0.141795  
         H19       1.0000    0.64330   0.50220   0.36420   Biso      1.000     H          0.115586  
         H20       1.0000    0.56260   0.46970   0.21700   Biso      1.000     H          0.132093  
         H21       1.0000    0.63660   0.61770   0.15120   Biso      1.000     H          0.142983  
         H22       1.0000    0.35490   0.89160   0.90500   Biso      1.000     H          0.381159  
         H23       1.0000    0.87740   0.07640   0.40780   Biso      1.000     H          0.386223  
         H24       1.0000    0.64510   0.10840   0.09500   Biso      1.000     H          0.381159  
         H25       1.0000    0.42570   0.94320   0.14010   Biso      1.000     H          0.139874  
         H26       1.0000    0.50450   0.97100   0.28400   Biso      1.000     H          0.140565  
         H27       1.0000    0.49550   0.02900   0.71600   Biso      1.000     H          0.140565  
         H28       1.0000    0.57430   0.05680   0.85990   Biso      1.000     H          0.139874  
         N1        1.0000    0.99460   0.65630   0.36850   Biso      1.000     N          0.303193  
         N2        1.0000    0.73920   0.71170   0.88930   Biso      1.000     N          0.317989  
         N3        1.0000    0.68260   0.67530   0.37480   Biso      1.000     N          0.295423  
         N4        1.0000    0.74590   0.01690   0.86720   Biso      1.000     N          0.289639  
         N5        1.0000    0.26080   0.28830   0.11070   Biso      1.000     N          0.317989  
         N6        1.0000    0.00540   0.34370   0.63150   Biso      1.000     N          0.303193  
         N7        1.0000    0.31740   0.32470   0.62520   Biso      1.000     N          0.295423  
         N8        1.0000    0.25410   0.98310   0.13280   Biso      1.000     N          0.289639  
         O1        1.0000    0.71130   0.69110   0.46060   Biso      1.000     O          -0.512909           
         O2        1.0000    0.86110   0.90200   0.43570   Biso      1.000     O          -0.598941           
         O3        1.0000    0.66530   0.94990   0.40600   Biso      1.000     O          -0.549266           
         O4        1.0000    0.74360   0.94870   0.25570   Biso      1.000     O          -0.583109           
         O5        1.0000    0.70270   0.81680   0.13740   Biso      1.000     O          -0.534578           
         O6        1.0000    0.01380   0.66940   0.44960   Biso      1.000     O          -0.509579           
         O7        1.0000    0.05980   0.39550   0.40370   Biso      1.000     O          -0.578681           
         O8        1.0000    0.85940   0.43040   0.39140   Biso      1.000     O          -0.517266           
         O9        1.0000    0.88890   0.32020   0.23120   Biso      1.000     O          -0.53617  
         O10       1.0000    0.11070   0.84580   0.60840   Biso      1.000     O          -0.881319           
         O11       1.0000    0.77490   0.72760   0.97220   Biso      1.000     O          -0.500704           
         O12       1.0000    0.54640   0.87350   0.94170   Biso      1.000     O          -0.612606           
         O13       1.0000    0.47110   0.68310   0.91330   Biso      1.000     O          -0.506475           
         O14       1.0000    0.37460   0.79300   0.75420   Biso      1.000     O          -0.568482           
         O15       1.0000    0.40890   0.71380   0.63850   Biso      1.000     O          -0.553899           
         O16       1.0000    0.73470   0.09340   0.11060   Biso      1.000     O          -0.882861           
         O17       1.0000    0.03230   0.07580   0.89950   Biso      1.000     O          -0.577616           
         O18       1.0000    0.99020   0.87860   0.89400   Biso      1.000     O          -0.523472           
         O19       1.0000    0.98560   0.93630   0.72900   Biso      1.000     O          -0.572554           
         O20       1.0000    0.88630   0.38590   0.11190   Biso      1.000     O          -0.57181  
         O21       1.0000    0.20970   0.97040   0.04720   Biso      1.000     O          -0.537968           
         O22       1.0000    0.01440   0.06370   0.27100   Biso      1.000     O          -0.572554           
         O23       1.0000    0.00980   0.12140   0.10600   Biso      1.000     O          -0.523472           
         O24       1.0000    0.81450   0.86630   0.61860   Biso      1.000     O          -0.52624  
         O25       1.0000    0.28870   0.30890   0.53940   Biso      1.000     O          -0.512909           
         O26       1.0000    0.13890   0.09800   0.56430   Biso      1.000     O          -0.598941           
         O27       1.0000    0.33470   0.05010   0.59400   Biso      1.000     O          -0.549266           
         O28       1.0000    0.25640   0.05130   0.74430   Biso      1.000     O          -0.583109           
         O29       1.0000    0.29730   0.18320   0.86260   Biso      1.000     O          -0.534578           
         O30       1.0000    0.98620   0.33060   0.55040   Biso      1.000     O          -0.509579           
         O31       1.0000    0.94020   0.60450   0.59630   Biso      1.000     O          -0.578681           
         O32       1.0000    0.14060   0.56960   0.60860   Biso      1.000     O          -0.517266           
         O33       1.0000    0.11110   0.67980   0.76880   Biso      1.000     O          -0.53617  
         O34       1.0000    0.11370   0.61410   0.88810   Biso      1.000     O          -0.57181  
         O35       1.0000    0.88930   0.15420   0.39160   Biso      1.000     O          -0.881319           
         O36       1.0000    0.22510   0.27240   0.02780   Biso      1.000     O          -0.500704           
         O37       1.0000    0.45360   0.12650   0.05830   Biso      1.000     O          -0.612606           
         O38       1.0000    0.52890   0.31690   0.08670   Biso      1.000     O          -0.506475           
         O39       1.0000    0.62540   0.20700   0.24580   Biso      1.000     O          -0.568482           
         O40       1.0000    0.59110   0.28620   0.36150   Biso      1.000     O          -0.553899           
         O41       1.0000    0.26530   0.90660   0.88940   Biso      1.000     O          -0.882862           
         O42       1.0000    0.96770   0.92420   0.10050   Biso      1.000     O          -0.577616           
         O43       1.0000    0.18550   0.13370   0.38140   Biso      1.000     O          -0.52624  
         O44       1.0000    0.79030   0.02960   0.95280   Biso      1.000     O          -0.537968 