
##########################################################################
#               Crystallographic Information Format file
#               Produced by PyCifRW module
#
#  This is a CIF file.  CIF has been adopted by the International
#  Union of Crystallography as the standard for data archiving and
#  transmission.
#
#  For information on this file format, follow the CIF links at
#  http://www.iucr.org
##########################################################################

data_image0

_cell_length_a                          11.14
_cell_length_b                          11.249
_cell_length_c                          16.815
_cell_angle_alpha                       98.141
_cell_angle_beta                        108.842
_cell_angle_gamma                       91.333
_symmetry_space_group_name_H-M          'P 1'
_symmetry_int_tables_number             1
loop_
  _symmetry_equiv_pos_as_xyz
         'x, y, z' 
loop_
  _atom_site_label
  _atom_site_occupancy
  _atom_site_fract_x
  _atom_site_fract_y
  _atom_site_fract_z
  _atom_site_thermal_displace_type
  _atom_site_B_iso_or_equiv
  _atom_site_type_symbol
  _atom_site_charge
         C1        1.0000    0.25340   0.38610   0.90320   Biso      1.000     C          0.577786  
         C2        1.0000    0.73540   0.84640   0.74240   Biso      1.000     C          -0.11321400000000001          
         C3        1.0000    0.68720   0.82480   0.65590   Biso      1.000     C          -0.016318           
         C4        1.0000    0.87460   0.46540   0.67430   Biso      1.000     C          -0.032642000000000004         
         C5        1.0000    0.91810   0.48460   0.76240   Biso      1.000     C          -0.091978           
         C6        1.0000    0.83750   0.51980   0.80630   Biso      1.000     C          -0.054188           
         C7        1.0000    0.71020   0.53540   0.76280   Biso      1.000     C          -0.079012           
         C8        1.0000    0.62020   0.58400   0.80730   Biso      1.000     C          0.6009180000000001  
         C9        1.0000    0.66730   0.51130   0.67390   Biso      1.000     C          0.002315  
         C10       1.0000    0.53220   0.52370   0.61880   Biso      1.000     C          0.6101310000000001  
         C11       1.0000    0.49120   0.75310   0.17150   Biso      1.000     C          -0.036446           
         C12       1.0000    0.51120   0.77450   0.25900   Biso      1.000     C          -0.09597  
         C13       1.0000    0.54690   0.88950   0.30260   Biso      1.000     C          -0.056028999999999995         
         C14       1.0000    0.55940   0.98500   0.25890   Biso      1.000     C          -0.079644           
         C15       1.0000    0.60050   0.11010   0.30540   Biso      1.000     C          0.64265   
         C16       1.0000    0.54070   0.05310   0.11800   Biso      1.000     C          0.613328  
         C17       1.0000    0.53890   0.95960   0.17290   Biso      1.000     C          0.008525  
         C18       1.0000    0.74660   0.61390   0.09680   Biso      1.000     C          0.577784  
         C19       1.0000    0.85240   0.80750   0.77460   Biso      1.000     C          -0.083858           
         C20       1.0000    0.79130   0.72850   0.16130   Biso      1.000     C          -0.018856           
         C21       1.0000    0.93780   0.77920   0.73770   Biso      1.000     C          -0.08988  
         C22       1.0000    0.88830   0.76070   0.64910   Biso      1.000     C          -0.004016           
         C23       1.0000    0.33270   0.48870   0.32610   Biso      1.000     C          0.0023120000000000003         
         C24       1.0000    0.46780   0.47630   0.38120   Biso      1.000     C          0.6101489999999999  
         C25       1.0000    0.50880   0.24690   0.82850   Biso      1.000     C          -0.036449           
         C26       1.0000    0.48880   0.22550   0.74100   Biso      1.000     C          -0.095969           
         C27       1.0000    0.45310   0.11050   0.69740   Biso      1.000     C          -0.056024000000000004         
         C28       1.0000    0.44060   0.01500   0.74110   Biso      1.000     C          -0.079648           
         C29       1.0000    0.39950   0.88990   0.69460   Biso      1.000     C          0.642605  
         C30       1.0000    0.45930   0.94690   0.88200   Biso      1.000     C          0.6133310000000001  
         C31       1.0000    0.46110   0.04040   0.82710   Biso      1.000     C          0.008513  
         C32       1.0000    0.16250   0.48020   0.19370   Biso      1.000     C          -0.054214           
         C33       1.0000    0.20870   0.27150   0.83870   Biso      1.000     C          -0.018846           
         C34       1.0000    0.21990   0.35530   0.71200   Biso      1.000     C          0.611107  
         C35       1.0000    0.18310   0.25480   0.75210   Biso      1.000     C          -0.1      
         C36       1.0000    0.13840   0.14400   0.70350   Biso      1.000     C          -0.085879           
         C37       1.0000    0.11250   0.04940   0.74260   Biso      1.000     C          -0.115828           
         C38       1.0000    0.14030   0.06460   0.82760   Biso      1.000     C          -0.030744999999999998         
         C39       1.0000    0.95860   0.72650   0.58790   Biso      1.000     C          0.560901  
         C40       1.0000    0.07120   0.74900   0.78180   Biso      1.000     C          0.637475  
         C41       1.0000    0.78010   0.64470   0.28800   Biso      1.000     C          0.611132  
         C42       1.0000    0.81690   0.74520   0.24790   Biso      1.000     C          -0.100002           
         C43       1.0000    0.86160   0.85600   0.29650   Biso      1.000     C          -0.08591  
         C44       1.0000    0.04140   0.27350   0.41210   Biso      1.000     C          0.560905  
         C45       1.0000    0.11170   0.23930   0.35090   Biso      1.000     C          -0.004007999999999999         
         C46       1.0000    0.92880   0.25100   0.21820   Biso      1.000     C          0.6374890000000001  
         C47       1.0000    0.06220   0.22080   0.26230   Biso      1.000     C          -0.089917           
         C48       1.0000    0.14760   0.19250   0.22540   Biso      1.000     C          -0.083835           
         C49       1.0000    0.26460   0.15360   0.25760   Biso      1.000     C          -0.113228           
         C50       1.0000    0.31280   0.17520   0.34410   Biso      1.000     C          -0.016355           
         C51       1.0000    0.12540   0.53460   0.32570   Biso      1.000     C          -0.032647           
         C52       1.0000    0.08190   0.51540   0.23760   Biso      1.000     C          -0.09198300000000001          
         C53       1.0000    0.37980   0.41600   0.19270   Biso      1.000     C          0.600947  
         C54       1.0000    0.28980   0.46460   0.23720   Biso      1.000     C          -0.079023           
         C55       1.0000    0.88750   0.95060   0.25740   Biso      1.000     C          -0.115851           
         C56       1.0000    0.85970   0.93540   0.17240   Biso      1.000     C          -0.030766           
         H1        1.0000    0.49950   0.28820   0.71280   Biso      1.000     H          0.138783  
         H2        1.0000    0.62300   0.40220   0.09280   Biso      1.000     H          0.42625   
         H3        1.0000    0.16590   0.60540   0.59390   Biso      1.000     H          0.425058  
         H4        1.0000    0.12360   0.20060   0.16820   Biso      1.000     H          0.11655599999999999           
         H5        1.0000    0.30830   0.11550   0.22380   Biso      1.000     H          0.137627  
         H6        1.0000    0.39640   0.16040   0.37250   Biso      1.000     H          0.116573  
         H7        1.0000    0.07150   0.55910   0.35610   Biso      1.000     H          0.144706  
         H8        1.0000    0.99760   0.52650   0.20820   Biso      1.000     H          0.140442  
         H9        1.0000    0.87450   0.99870   0.14580   Biso      1.000     H          0.12006700000000001           
         H10       1.0000    0.92400   0.02420   0.29020   Biso      1.000     H          0.126832  
         H11       1.0000    0.87440   0.86790   0.35460   Biso      1.000     H          0.140849  
         H12       1.0000    0.56290   0.90450   0.36110   Biso      1.000     H          0.138934  
         H13       1.0000    0.50050   0.71180   0.28720   Biso      1.000     H          0.13878900000000002           
         H14       1.0000    0.46830   0.67570   0.14100   Biso      1.000     H          0.144366  
         H15       1.0000    0.86760   0.53350   0.86540   Biso      1.000     H          0.14444   
         H16       1.0000    0.00240   0.47350   0.79180   Biso      1.000     H          0.140449  
         H17       1.0000    0.92850   0.44090   0.64390   Biso      1.000     H          0.14472000000000002           
         H18       1.0000    0.60360   0.83960   0.62750   Biso      1.000     H          0.116585  
         H19       1.0000    0.13240   0.46650   0.13460   Biso      1.000     H          0.144426  
         H20       1.0000    0.87640   0.79940   0.83180   Biso      1.000     H          0.116568  
         H21       1.0000    0.83410   0.39460   0.40610   Biso      1.000     H          0.42509300000000005           
         H22       1.0000    0.37700   0.59780   0.90720   Biso      1.000     H          0.42623599999999995           
         H23       1.0000    0.12550   0.00130   0.85420   Biso      1.000     H          0.120077  
         H24       1.0000    0.07600   0.97580   0.70980   Biso      1.000     H          0.126839  
         H25       1.0000    0.12560   0.13210   0.64540   Biso      1.000     H          0.140853  
         H26       1.0000    0.43710   0.09550   0.63890   Biso      1.000     H          0.138917  
         H27       1.0000    0.53170   0.32430   0.85900   Biso      1.000     H          0.14436300000000002           
         H28       1.0000    0.69170   0.88450   0.77620   Biso      1.000     H          0.13763599999999998           
         Mn1       1.0000    0.58206   0.72938   0.96245   Biso      1.000     Mn          1.061993  
         Mn2       1.0000    0.70774   0.21004   0.04844   Biso      1.000     Mn          1.075719  
         Mn3       1.0000    0.31962   0.63415   0.74955   Biso      1.000     Mn          1.140124  
         Mn4       1.0000    0.25382   0.41601   0.54350   Biso      1.000     Mn          1.059002  
         Mn5       1.0000    0.32726   0.69846   0.54197   Biso      1.000     Mn          1.070267  
         Mn6       1.0000    0.41794   0.27062   0.03755   Biso      1.000     Mn          1.062098  
         Mn7       1.0000    0.29226   0.78996   0.95156   Biso      1.000     Mn          1.075835  
         Mn8       1.0000    0.68038   0.36585   0.25045   Biso      1.000     Mn          1.140332  
         Mn9       1.0000    0.74618   0.58399   0.45650   Biso      1.000     Mn          1.0590600000000001  
         Mn10      1.0000    0.67274   0.30154   0.45803   Biso      1.000     Mn          1.070617  
         N1        1.0000    0.23490   0.21970   0.38860   Biso      1.000     N          0.290431  
         N2        1.0000    0.24890   0.51690   0.36660   Biso      1.000     N          0.30042399999999997           
         N3        1.0000    0.49460   0.15490   0.86760   Biso      1.000     N          0.313927  
         N4        1.0000    0.19060   0.17450   0.87432   Biso      1.000     N          0.29625   
         N5        1.0000    0.76510   0.78030   0.61140   Biso      1.000     N          0.290426  
         N6        1.0000    0.75110   0.48310   0.63340   Biso      1.000     N          0.30041999999999996           
         N7        1.0000    0.50540   0.84510   0.13240   Biso      1.000     N          0.313929  
         N8        1.0000    0.80940   0.82550   0.12568   Biso      1.000     N          0.29625   
         O1        1.0000    0.36980   0.40080   0.94487   Biso      1.000     O          -0.600758           
         O2        1.0000    0.16940   0.45250   0.91021   Biso      1.000     O          -0.544149           
         O3        1.0000    0.25200   0.45490   0.75760   Biso      1.000     O          -0.554299           
         O4        1.0000    0.21200   0.32720   0.63574   Biso      1.000     O          -0.55291  
         O5        1.0000    0.51830   0.17570   0.95110   Biso      1.000     O          -0.533279           
         O6        1.0000    0.36190   0.93070   0.89920   Biso      1.000     O          -0.5318579999999999           
         O7        1.0000    0.55910   0.89320   0.90736   Biso      1.000     O          -0.550737           
         O8        1.0000    0.38150   0.81250   0.73598   Biso      1.000     O          -0.559443           
         O9        1.0000    0.38650   0.87030   0.61763   Biso      1.000     O          -0.566128           
         O10       1.0000    0.97420   0.18700   0.41960   Biso      1.000     O          -0.5372060000000001           
         O11       1.0000    0.53880   0.57230   0.40371   Biso      1.000     O          -0.538371           
         O12       1.0000    0.49460   0.37370   0.39886   Biso      1.000     O          -0.537959           
         O13       1.0000    0.49540   0.43030   0.23527   Biso      1.000     O          -0.557437           
         O14       1.0000    0.32820   0.36250   0.11757   Biso      1.000     O          -0.524771           
         O15       1.0000    0.28250   0.23810   0.47427   Biso      1.000     O          -0.49777200000000005          
         O16       1.0000    0.88760   0.21590   0.13965   Biso      1.000     O          -0.573484           
         O17       1.0000    0.87160   0.30820   0.26226   Biso      1.000     O          -0.547136           
         O18       1.0000    0.22170   0.18700   0.95893   Biso      1.000     O          -0.492782           
         O19       1.0000    0.05920   0.37860   0.45142   Biso      1.000     O          -0.58324  
         O20       1.0000    0.29060   0.52960   0.45246   Biso      1.000     O          -0.542201           
         O21       1.0000    0.38860   0.66510   0.89230   Biso      1.000     O          -0.91145  
         O22       1.0000    0.50460   0.56970   0.76473   Biso      1.000     O          -0.557411           
         O23       1.0000    0.94080   0.62140   0.54858   Biso      1.000     O          -0.583225           
         O24       1.0000    0.77830   0.81300   0.04107   Biso      1.000     O          -0.49279799999999996          
         O25       1.0000    0.63020   0.59920   0.05513   Biso      1.000     O          -0.600772           
         O26       1.0000    0.83060   0.54750   0.08979   Biso      1.000     O          -0.5441630000000001           
         O27       1.0000    0.74800   0.54510   0.24240   Biso      1.000     O          -0.5543060000000001           
         O28       1.0000    0.78800   0.67280   0.36426   Biso      1.000     O          -0.552906           
         O29       1.0000    0.48170   0.82430   0.04890   Biso      1.000     O          -0.533267           
         O30       1.0000    0.63810   0.06930   0.10080   Biso      1.000     O          -0.531832           
         O31       1.0000    0.44090   0.10680   0.09264   Biso      1.000     O          -0.55075  
         O32       1.0000    0.61850   0.18750   0.26402   Biso      1.000     O          -0.559448           
         O33       1.0000    0.61350   0.12970   0.38237   Biso      1.000     O          -0.566135           
         O34       1.0000    0.70940   0.47040   0.54754   Biso      1.000     O          -0.542227           
         O35       1.0000    0.46120   0.42770   0.59629   Biso      1.000     O          -0.5383859999999999           
         O36       1.0000    0.50540   0.62630   0.60114   Biso      1.000     O          -0.5379390000000001           
         O37       1.0000    0.24410   0.59180   0.60845   Biso      1.000     O          -0.9132610000000001           
         O38       1.0000    0.67180   0.63750   0.88243   Biso      1.000     O          -0.524775           
         O39       1.0000    0.71750   0.76190   0.52573   Biso      1.000     O          -0.49775  
         O40       1.0000    0.11240   0.78410   0.86035   Biso      1.000     O          -0.573505           
         O41       1.0000    0.12840   0.69180   0.73774   Biso      1.000     O          -0.547098           
         O42       1.0000    0.02580   0.81300   0.58040   Biso      1.000     O          -0.537165           
         O43       1.0000    0.75590   0.40820   0.39155   Biso      1.000     O          -0.9133030000000001           
         O44       1.0000    0.61140   0.33490   0.10770   Biso      1.000     O          -0.9114700000000001 