
##########################################################################
#               Crystallographic Information Format file
#               Produced by PyCifRW module
#
#  This is a CIF file.  CIF has been adopted by the International
#  Union of Crystallography as the standard for data archiving and
#  transmission.
#
#  For information on this file format, follow the CIF links at
#  http://www.iucr.org
##########################################################################

data_image0

_cell_length_a                          10.5085
_cell_length_b                          10.5085
_cell_length_c                          10.8772
_cell_angle_alpha                       101.173
_cell_angle_beta                        117.53
_cell_angle_gamma                       108.723
_symmetry_space_group_name_H-M          'P 1'
_symmetry_int_tables_number             1
loop_
  _symmetry_equiv_pos_as_xyz
         'x, y, z' 
loop_
  _atom_site_label
  _atom_site_occupancy
  _atom_site_fract_x
  _atom_site_fract_y
  _atom_site_fract_z
  _atom_site_thermal_displace_type
  _atom_site_B_iso_or_equiv
  _atom_site_type_symbol
  _atom_site_charge
         C1        1.0000    0.40290   0.35110   0.33100   Biso      1.000     C          0.663659  
         C2        1.0000    0.18450   0.80350   0.75620   Biso      1.000     C          0.725499  
         C3        1.0000    0.00080   0.77590   0.37490   Biso      1.000     C          0.696146  
         C4        1.0000    0.59710   0.64890   0.66900   Biso      1.000     C          0.6636449999999999  
         C5        1.0000    0.51260   0.55200   0.72120   Biso      1.000     C          -0.538219           
         C6        1.0000    0.54730   0.42830   0.74380   Biso      1.000     C          0.725236  
         C7        1.0000    0.90100   0.62590   0.12510   Biso      1.000     C          0.69715   
         C8        1.0000    0.52010   0.07190   0.16900   Biso      1.000     C          0.665667  
         C9        1.0000    0.66920   0.20860   0.22120   Biso      1.000     C          -0.537237           
         C10       1.0000    0.81550   0.19650   0.24380   Biso      1.000     C          0.7255159999999999  
         C11       1.0000    0.99920   0.22410   0.62510   Biso      1.000     C          0.696136  
         C12       1.0000    0.48740   0.44800   0.27880   Biso      1.000     C          -0.538222           
         C13       1.0000    0.45270   0.57170   0.25620   Biso      1.000     C          0.725233  
         C14       1.0000    0.09900   0.37410   0.87490   Biso      1.000     C          0.6971470000000001  
         C15       1.0000    0.87560   0.62560   0.25000   Biso      1.000     C          -0.511437           
         C16       1.0000    0.12440   0.37440   0.75000   Biso      1.000     C          -0.511434           
         C17       1.0000    0.47990   0.92810   0.83100   Biso      1.000     C          0.665724  
         C18       1.0000    0.33080   0.79140   0.77880   Biso      1.000     C          -0.537265           
         Eu1       1.0000    0.25506   0.06835   0.62039   Biso      1.000     Eu          1.440022  
         Eu2       1.0000    0.05204   0.36533   0.12039   Biso      1.000     Eu          1.440714  
         Eu3       1.0000    0.94796   0.63467   0.87961   Biso      1.000     Eu          1.440698  
         Eu4       1.0000    0.74494   0.93165   0.37961   Biso      1.000     Eu          1.440032  
         H1        1.0000    0.23240   0.39050   0.78310   Biso      1.000     H          0.17589100000000002           
         H2        1.0000    0.36230   0.74830   0.85200   Biso      1.000     H          0.166543  
         H3        1.0000    0.29800   0.72210   0.68350   Biso      1.000     H          0.192325  
         H4        1.0000    0.89260   0.55070   0.28310   Biso      1.000     H          0.173645  
         H5        1.0000    0.46140   0.38550   0.18350   Biso      1.000     H          0.19278399999999998           
         H6        1.0000    0.53860   0.61450   0.81650   Biso      1.000     H          0.19278299999999998           
         H7        1.0000    0.76760   0.60950   0.21690   Biso      1.000     H          0.17589100000000002           
         H8        1.0000    0.63770   0.25170   0.14800   Biso      1.000     H          0.16653800000000002           
         H9        1.0000    0.70200   0.27790   0.31650   Biso      1.000     H          0.192315  
         H10       1.0000    0.10740   0.44930   0.71690   Biso      1.000     H          0.173644  
         H11       1.0000    0.39630   0.51030   0.64800   Biso      1.000     H          0.16775299999999999           
         H12       1.0000    0.60370   0.48970   0.35200   Biso      1.000     H          0.16775   
         O1        1.0000    0.85130   0.10610   0.29280   Biso      1.000     O          -0.5506810000000001           
         O2        1.0000    0.90140   0.28360   0.21640   Biso      1.000     O          -0.601677           
         O3        1.0000    0.38400   0.05580   0.07220   Biso      1.000     O          -0.360547           
         O4        1.0000    0.85170   0.19040   0.55830   Biso      1.000     O          -0.5589970000000001           
         O5        1.0000    0.31330   0.55850   0.20720   Biso      1.000     O          -0.551087           
         O6        1.0000    0.25350   0.30940   0.27470   Biso      1.000     O          -0.561841           
         O7        1.0000    0.56720   0.68500   0.28360   Biso      1.000     O          -0.602067           
         O8        1.0000    0.53470   0.97880   0.22530   Biso      1.000     O          -0.563437           
         O9        1.0000    0.48360   0.31180   0.42780   Biso      1.000     O          -0.359926           
         O10       1.0000    0.04250   0.13100   0.59210   Biso      1.000     O          -0.6326350000000001           
         O11       1.0000    0.96110   0.54960   0.09210   Biso      1.000     O          -0.63289  
         O12       1.0000    0.14830   0.80960   0.44170   Biso      1.000     O          -0.559003           
         O13       1.0000    0.51640   0.68820   0.57220   Biso      1.000     O          -0.35991799999999996          
         O14       1.0000    0.43280   0.31500   0.71640   Biso      1.000     O          -0.602072           
         O15       1.0000    0.68670   0.44150   0.79280   Biso      1.000     O          -0.551079           
         O16       1.0000    0.74650   0.69060   0.72530   Biso      1.000     O          -0.561837           
         O17       1.0000    0.95750   0.86900   0.40790   Biso      1.000     O          -0.632638           
         O18       1.0000    0.61600   0.94420   0.92780   Biso      1.000     O          -0.360644           
         O19       1.0000    0.09860   0.71640   0.78360   Biso      1.000     O          -0.601667           
         O20       1.0000    0.14870   0.89390   0.70720   Biso      1.000     O          -0.550639           
         O21       1.0000    0.46530   0.02120   0.77470   Biso      1.000     O          -0.563447           
         O22       1.0000    0.13210   0.29340   0.94170   Biso      1.000     O          -0.5603279999999999           
         O23       1.0000    0.86790   0.70660   0.05830   Biso      1.000     O          -0.560327           
         O24       1.0000    0.03890   0.45040   0.90790   Biso      1.000     O          -0.632888 