
##########################################################################
#               Crystallographic Information Format file
#               Produced by PyCifRW module
#
#  This is a CIF file.  CIF has been adopted by the International
#  Union of Crystallography as the standard for data archiving and
#  transmission.
#
#  For information on this file format, follow the CIF links at
#  http://www.iucr.org
##########################################################################

data_image0

_cell_length_a                          10.5477
_cell_length_b                          10.5477
_cell_length_c                          10.8997
_cell_angle_alpha                       78.8327
_cell_angle_beta                        62.4961
_cell_angle_gamma                       108.823
_symmetry_space_group_name_H-M          'P 1'
_symmetry_int_tables_number             1
loop_
  _symmetry_equiv_pos_as_xyz
         'x, y, z' 
loop_
  _atom_site_label
  _atom_site_occupancy
  _atom_site_fract_x
  _atom_site_fract_y
  _atom_site_fract_z
  _atom_site_thermal_displace_type
  _atom_site_B_iso_or_equiv
  _atom_site_type_symbol
  _atom_site_charge
         C1        1.0000    0.01970   0.07140   0.33150   Biso      1.000     C          0.667715  
         C2        1.0000    0.04700   0.42780   0.75700   Biso      1.000     C          0.708922  
         C3        1.0000    0.59880   0.37510   0.62510   Biso      1.000     C          0.684928  
         C4        1.0000    0.98030   0.92860   0.66850   Biso      1.000     C          0.667719  
         C5        1.0000    0.83170   0.79110   0.72220   Biso      1.000     C          -0.520525           
         C6        1.0000    0.68480   0.80400   0.74300   Biso      1.000     C          0.707132  
         C7        1.0000    0.50020   0.22390   0.87490   Biso      1.000     C          0.681922  
         C8        1.0000    0.90290   0.35120   0.16850   Biso      1.000     C          0.663363  
         C9        1.0000    0.98670   0.44610   0.22220   Biso      1.000     C          -0.520584           
         C10       1.0000    0.95300   0.57220   0.24300   Biso      1.000     C          0.708923  
         C11       1.0000    0.40120   0.62490   0.37490   Biso      1.000     C          0.684926  
         C12       1.0000    0.16830   0.20890   0.27780   Biso      1.000     C          -0.520515           
         C13       1.0000    0.31520   0.19600   0.25700   Biso      1.000     C          0.707124  
         C14       1.0000    0.49980   0.77610   0.12510   Biso      1.000     C          0.681922  
         C15       1.0000    0.62520   0.37520   0.75000   Biso      1.000     C          -0.483501           
         C16       1.0000    0.37480   0.62480   0.25000   Biso      1.000     C          -0.483501           
         C17       1.0000    0.01330   0.55390   0.77780   Biso      1.000     C          -0.520592           
         C18       1.0000    0.09710   0.64880   0.83150   Biso      1.000     C          0.6633640000000001  
         Eu1       1.0000    0.44823   0.63478   0.62035   Biso      1.000     Eu          1.385472  
         Eu2       1.0000    0.75513   0.06858   0.87965   Biso      1.000     Eu          1.385043  
         Eu3       1.0000    0.55177   0.36522   0.37965   Biso      1.000     Eu          1.385477  
         Eu4       1.0000    0.24487   0.93142   0.12035   Biso      1.000     Eu          1.385057  
         H1        1.0000    0.39170   0.55040   0.21670   Biso      1.000     H          0.18323499999999998           
         H2        1.0000    0.20160   0.27660   0.18160   Biso      1.000     H          0.194132  
         H3        1.0000    0.89720   0.51350   0.84930   Biso      1.000     H          0.16630899999999998           
         H4        1.0000    0.04180   0.61680   0.68160   Biso      1.000     H          0.193673  
         H5        1.0000    0.73290   0.39160   0.71670   Biso      1.000     H          0.18663   
         H6        1.0000    0.84400   0.14300   0.56900   Biso      1.000     H          0.363052  
         H7        1.0000    0.21200   0.41300   0.93100   Biso      1.000     H          0.366119  
         H8        1.0000    0.79840   0.72340   0.81840   Biso      1.000     H          0.194139  
         H9        1.0000    0.60830   0.44960   0.78330   Biso      1.000     H          0.18323499999999998           
         H10       1.0000    0.78800   0.58700   0.06900   Biso      1.000     H          0.366124  
         H11       1.0000    0.10280   0.48650   0.15070   Biso      1.000     H          0.16630899999999998           
         H12       1.0000    0.95820   0.38320   0.31840   Biso      1.000     H          0.193673  
         H13       1.0000    0.26710   0.60840   0.28330   Biso      1.000     H          0.186629  
         H14       1.0000    0.15600   0.85700   0.43100   Biso      1.000     H          0.363045  
         H15       1.0000    0.86280   0.74650   0.65070   Biso      1.000     H          0.164613  
         H16       1.0000    0.13720   0.25350   0.34930   Biso      1.000     H          0.16461199999999998           
         O1        1.0000    0.98420   0.31250   0.07190   Biso      1.000     O          -0.405105           
         O2        1.0000    0.81360   0.55810   0.29210   Biso      1.000     O          -0.512142           
         O3        1.0000    0.06800   0.68600   0.21420   Biso      1.000     O          -0.5480659999999999           
         O4        1.0000    0.36760   0.70640   0.44180   Biso      1.000     O          -0.49377299999999996          
         O5        1.0000    0.46030   0.54870   0.40860   Biso      1.000     O          -0.585266           
         O6        1.0000    0.35020   0.10570   0.20790   Biso      1.000     O          -0.5109020000000001           
         O7        1.0000    0.03500   0.97860   0.27400   Biso      1.000     O          -0.549032           
         O8        1.0000    0.88440   0.05610   0.42810   Biso      1.000     O          -0.40599  
         O9        1.0000    0.40020   0.28220   0.28580   Biso      1.000     O          -0.546888           
         O10       1.0000    0.75260   0.30900   0.22600   Biso      1.000     O          -0.546324           
         O11       1.0000    0.64820   0.80940   0.05820   Biso      1.000     O          -0.49131499999999995          
         O12       1.0000    0.68660   0.55390   0.11850   Biso      1.000     O          -0.500949           
         O13       1.0000    0.82760   0.19490   0.61850   Biso      1.000     O          -0.49749799999999994          
         O14       1.0000    0.63240   0.29360   0.55820   Biso      1.000     O          -0.49378199999999994          
         O15       1.0000    0.35180   0.19060   0.94180   Biso      1.000     O          -0.491313           
         O16       1.0000    0.59980   0.71780   0.71420   Biso      1.000     O          -0.5468890000000001           
         O17       1.0000    0.64980   0.89430   0.79210   Biso      1.000     O          -0.510903           
         O18       1.0000    0.11560   0.94390   0.57190   Biso      1.000     O          -0.40597  
         O19       1.0000    0.96500   0.02140   0.72600   Biso      1.000     O          -0.549013           
         O20       1.0000    0.31340   0.44610   0.88150   Biso      1.000     O          -0.500929           
         O21       1.0000    0.53970   0.45130   0.59140   Biso      1.000     O          -0.585268           
         O22       1.0000    0.93200   0.31400   0.78580   Biso      1.000     O          -0.548067           
         O23       1.0000    0.18640   0.44190   0.70790   Biso      1.000     O          -0.5121359999999999           
         O24       1.0000    0.01580   0.68750   0.92810   Biso      1.000     O          -0.405121           
         O25       1.0000    0.24740   0.69100   0.77400   Biso      1.000     O          -0.5463399999999999           
         O26       1.0000    0.45730   0.86890   0.09140   Biso      1.000     O          -0.584417           
         O27       1.0000    0.54270   0.13110   0.90860   Biso      1.000     O          -0.584414           
         O28       1.0000    0.17240   0.80510   0.38150   Biso      1.000     O          -0.497503 