
##########################################################################
#               Crystallographic Information Format file
#               Produced by PyCifRW module
#
#  This is a CIF file.  CIF has been adopted by the International
#  Union of Crystallography as the standard for data archiving and
#  transmission.
#
#  For information on this file format, follow the CIF links at
#  http://www.iucr.org
##########################################################################

data_image0

_cell_length_a                          10.5441
_cell_length_b                          10.5441
_cell_length_c                          10.7774
_cell_angle_alpha                       101.669
_cell_angle_beta                        117.578
_cell_angle_gamma                       108.667
_symmetry_space_group_name_H-M          'P 1'
_symmetry_int_tables_number             1
loop_
  _symmetry_equiv_pos_as_xyz
         'x, y, z' 
loop_
  _atom_site_label
  _atom_site_occupancy
  _atom_site_fract_x
  _atom_site_fract_y
  _atom_site_fract_z
  _atom_site_thermal_displace_type
  _atom_site_B_iso_or_equiv
  _atom_site_type_symbol
  _atom_site_charge
         C1        1.0000    0.06290   0.18940   0.86130   Biso      1.000     C          0.695891  
         C2        1.0000    0.98200   0.75280   0.97800   Biso      1.000     C          0.7100350000000001  
         C3        1.0000    0.17190   0.79840   0.36130   Biso      1.000     C          0.695904  
         C4        1.0000    0.63040   0.14440   0.00300   Biso      1.000     C          0.735955  
         C5        1.0000    0.65850   0.01150   0.01440   Biso      1.000     C          -0.502894           
         C6        1.0000    0.56860   0.91060   0.06820   Biso      1.000     C          0.6546109999999999  
         C7        1.0000    0.27390   0.95200   0.61390   Biso      1.000     C          0.68088   
         C8        1.0000    0.30120   0.94960   0.48640   Biso      1.000     C          -0.49629799999999996          
         C9        1.0000    0.76510   0.21510   0.40700   Biso      1.000     C          0.6713279999999999  
         C10       1.0000    0.68160   0.11420   0.45220   Biso      1.000     C          -0.522641           
         C11       1.0000    0.72520   0.99600   0.47800   Biso      1.000     C          0.710058  
         C12       1.0000    0.35860   0.37260   0.50300   Biso      1.000     C          0.735945  
         C13       1.0000    0.50290   0.35590   0.51440   Biso      1.000     C          -0.502912           
         C14       1.0000    0.65760   0.49960   0.56820   Biso      1.000     C          0.654628  
         C15       1.0000    0.16190   0.34000   0.11390   Biso      1.000     C          0.680878  
         C16       1.0000    0.03680   0.18520   0.98640   Biso      1.000     C          -0.49629399999999996          
         C17       1.0000    0.69190   0.64190   0.90700   Biso      1.000     C          0.671334  
         C18       1.0000    0.83800   0.77060   0.95220   Biso      1.000     C          -0.5226430000000001           
         Eu1       1.0000    0.91374   0.50116   0.12370   Biso      1.000     Eu          1.447865  
         Eu2       1.0000    0.42208   0.63349   0.35643   Biso      1.000     Eu          1.4417309999999999  
         Eu3       1.0000    0.22294   0.93435   0.85643   Biso      1.000     Eu          1.4417360000000001  
         Eu4       1.0000    0.12254   0.20996   0.62370   Biso      1.000     Eu          1.447877  
         H1        1.0000    0.05780   0.10950   0.02090   Biso      1.000     H          0.16888699999999998           
         H2        1.0000    0.80580   0.80830   0.87170   Biso      1.000     H          0.169652  
         H3        1.0000    0.87400   0.84800   0.04840   Biso      1.000     H          0.191353  
         H4        1.0000    0.77690   0.04890   0.08660   Biso      1.000     H          0.155802  
         H5        1.0000    0.92480   0.16520   0.95180   Biso      1.000     H          0.168945  
         H6        1.0000    0.28660   0.02700   0.45180   Biso      1.000     H          0.168943  
         H7        1.0000    0.41140   0.96310   0.52090   Biso      1.000     H          0.168888  
         H8        1.0000    0.56340   0.06590   0.37170   Biso      1.000     H          0.169647  
         H9        1.0000    0.70040   0.17440   0.54840   Biso      1.000     H          0.191353  
         H10       1.0000    0.53770   0.30970   0.58660   Biso      1.000     H          0.155817  
         H11       1.0000    0.62560   0.94890   0.91190   Biso      1.000     H          0.184815  
         H12       1.0000    0.46300   0.28630   0.41190   Biso      1.000     H          0.184827  
         O1        1.0000    0.68330   0.25610   0.31220   Biso      1.000     O          -0.384922           
         O2        1.0000    0.86300   0.00970   0.52550   Biso      1.000     O          -0.531591           
         O3        1.0000    0.60370   0.87110   0.44200   Biso      1.000     O          -0.6285649999999999           
         O4        1.0000    0.12730   0.11650   0.82860   Biso      1.000     O          -0.646571           
         O5        1.0000    0.28140   0.28900   0.53200   Biso      1.000     O          -0.584661           
         O6        1.0000    0.32460   0.46230   0.45130   Biso      1.000     O          -0.551195           
         O7        1.0000    0.64070   0.58900   0.51190   Biso      1.000     O          -0.5610890000000001           
         O8        1.0000    0.91890   0.25980   0.46830   Biso      1.000     O          -0.590847           
         O9        1.0000    0.79260   0.51600   0.66440   Biso      1.000     O          -0.33951  
         O10       1.0000    0.02830   0.26800   0.79610   Biso      1.000     O          -0.5569649999999999           
         O11       1.0000    0.30530   0.86590   0.67860   Biso      1.000     O          -0.5646359999999999           
         O12       1.0000    0.21210   0.70130   0.32860   Biso      1.000     O          -0.64656  
         O13       1.0000    0.64840   0.87180   0.16440   Biso      1.000     O          -0.339485           
         O14       1.0000    0.42290   0.87120   0.01190   Biso      1.000     O          -0.561063           
         O15       1.0000    0.74300   0.25060   0.03200   Biso      1.000     O          -0.5846779999999999           
         O16       1.0000    0.48900   0.12670   0.95130   Biso      1.000     O          -0.551164           
         O17       1.0000    0.02810   0.76780   0.29610   Biso      1.000     O          -0.556976           
         O18       1.0000    0.07090   0.83830   0.94200   Biso      1.000     O          -0.628529           
         O19       1.0000    0.01580   0.66250   0.02550   Biso      1.000     O          -0.531582           
         O20       1.0000    0.55610   0.62890   0.81220   Biso      1.000     O          -0.384919           
         O21       1.0000    0.70850   0.54940   0.96830   Biso      1.000     O          -0.590855           
         O22       1.0000    0.12080   0.43220   0.14860   Biso      1.000     O          -0.615445           
         O23       1.0000    0.21640   0.02780   0.64860   Biso      1.000     O          -0.615454           
         O24       1.0000    0.31270   0.37330   0.17860   Biso      1.000     O          -0.564643 