
##########################################################################
#               Crystallographic Information Format file
#               Produced by PyCifRW module
#
#  This is a CIF file.  CIF has been adopted by the International
#  Union of Crystallography as the standard for data archiving and
#  transmission.
#
#  For information on this file format, follow the CIF links at
#  http://www.iucr.org
##########################################################################

data_image0

_cell_length_a                          10.5303
_cell_length_b                          10.5303
_cell_length_c                          10.8801
_cell_angle_alpha                       78.9016
_cell_angle_beta                        62.4926
_cell_angle_gamma                       108.899
_symmetry_space_group_name_H-M          'P 1'
_symmetry_int_tables_number             1
loop_
  _symmetry_equiv_pos_as_xyz
         'x, y, z' 
loop_
  _atom_site_label
  _atom_site_occupancy
  _atom_site_fract_x
  _atom_site_fract_y
  _atom_site_fract_z
  _atom_site_thermal_displace_type
  _atom_site_B_iso_or_equiv
  _atom_site_type_symbol
  _atom_site_charge
         C1        1.0000    0.98120   0.92980   0.66780   Biso      1.000     C          0.670426  
         C2        1.0000    0.95160   0.57190   0.24370   Biso      1.000     C          0.728248  
         C3        1.0000    0.59950   0.37510   0.62360   Biso      1.000     C          0.681984  
         C4        1.0000    0.01880   0.07020   0.33220   Biso      1.000     C          0.670404  
         C5        1.0000    0.16730   0.20930   0.28180   Biso      1.000     C          -0.519301           
         C6        1.0000    0.31560   0.19530   0.25630   Biso      1.000     C          0.728812  
         C7        1.0000    0.49870   0.22310   0.87640   Biso      1.000     C          0.679185  
         C8        1.0000    0.09760   0.64900   0.83220   Biso      1.000     C          0.668299  
         C9        1.0000    0.00890   0.55090   0.78180   Biso      1.000     C          -0.51882  
         C10       1.0000    0.04840   0.42810   0.75630   Biso      1.000     C          0.72825   
         C11       1.0000    0.40050   0.62490   0.37640   Biso      1.000     C          0.682006  
         C12       1.0000    0.83270   0.79070   0.71820   Biso      1.000     C          -0.519339           
         C13       1.0000    0.68440   0.80470   0.74370   Biso      1.000     C          0.7288279999999999  
         C14       1.0000    0.50130   0.77690   0.12360   Biso      1.000     C          0.679213  
         C15       1.0000    0.62540   0.37540   0.75000   Biso      1.000     C          -0.476713           
         C16       1.0000    0.37460   0.62460   0.25000   Biso      1.000     C          -0.476716           
         C17       1.0000    0.90240   0.35100   0.16780   Biso      1.000     C          0.668304  
         C18       1.0000    0.99110   0.44910   0.21820   Biso      1.000     C          -0.5188189999999999           
         Eu1       1.0000    0.55176   0.36522   0.37971   Biso      1.000     Eu          1.443268  
         Eu2       1.0000    0.75507   0.06853   0.87971   Biso      1.000     Eu          1.442792  
         Eu3       1.0000    0.24493   0.93147   0.12029   Biso      1.000     Eu          1.442807  
         Eu4       1.0000    0.44824   0.63478   0.62029   Biso      1.000     Eu          1.443244  
         H1        1.0000    0.25900   0.60900   0.28800   Biso      1.000     H          0.163423  
         H2        1.0000    0.96840   0.38720   0.31200   Biso      1.000     H          0.18949100000000002           
         H3        1.0000    0.10700   0.49270   0.14250   Biso      1.000     H          0.165983  
         H4        1.0000    0.60300   0.45300   0.78800   Biso      1.000     H          0.161249  
         H5        1.0000    0.86480   0.75050   0.64250   Biso      1.000     H          0.166684  
         H6        1.0000    0.13520   0.24950   0.35750   Biso      1.000     H          0.166671  
         H7        1.0000    0.74100   0.39100   0.71200   Biso      1.000     H          0.163421  
         H8        1.0000    0.03160   0.61280   0.68800   Biso      1.000     H          0.189494  
         H9        1.0000    0.89300   0.50730   0.85750   Biso      1.000     H          0.165985  
         H10       1.0000    0.39700   0.54700   0.21200   Biso      1.000     H          0.161251  
         H11       1.0000    0.19920   0.28040   0.18800   Biso      1.000     H          0.189304  
         H12       1.0000    0.80080   0.71960   0.81200   Biso      1.000     H          0.18931800000000001           
         O1        1.0000    0.01610   0.68740   0.92790   Biso      1.000     O          -0.359417           
         O2        1.0000    0.93170   0.31420   0.78590   Biso      1.000     O          -0.608881           
         O3        1.0000    0.46110   0.54920   0.40830   Biso      1.000     O          -0.62648  
         O4        1.0000    0.36830   0.70680   0.44170   Biso      1.000     O          -0.558458           
         O5        1.0000    0.11530   0.94400   0.57210   Biso      1.000     O          -0.359663           
         O6        1.0000    0.96490   0.02090   0.72540   Biso      1.000     O          -0.580255           
         O7        1.0000    0.60010   0.71760   0.71410   Biso      1.000     O          -0.609079           
         O8        1.0000    0.24630   0.69030   0.77460   Biso      1.000     O          -0.578401           
         O9        1.0000    0.45750   0.86940   0.09170   Biso      1.000     O          -0.624805           
         O10       1.0000    0.18650   0.44270   0.70820   Biso      1.000     O          -0.550692           
         O11       1.0000    0.34910   0.10530   0.20820   Biso      1.000     O          -0.5512060000000001           
         O12       1.0000    0.63170   0.29320   0.55830   Biso      1.000     O          -0.558427           
         O13       1.0000    0.54250   0.13060   0.90830   Biso      1.000     O          -0.624781           
         O14       1.0000    0.39990   0.28240   0.28590   Biso      1.000     O          -0.609064           
         O15       1.0000    0.88470   0.05600   0.42790   Biso      1.000     O          -0.359613           
         O16       1.0000    0.03510   0.97910   0.27460   Biso      1.000     O          -0.58026  
         O17       1.0000    0.81350   0.55730   0.29180   Biso      1.000     O          -0.550707           
         O18       1.0000    0.53890   0.45080   0.59170   Biso      1.000     O          -0.626464           
         O19       1.0000    0.06830   0.68580   0.21410   Biso      1.000     O          -0.608895           
         O20       1.0000    0.98390   0.31260   0.07210   Biso      1.000     O          -0.359448           
         O21       1.0000    0.75370   0.30970   0.22540   Biso      1.000     O          -0.578403           
         O22       1.0000    0.64850   0.81000   0.05830   Biso      1.000     O          -0.557034           
         O23       1.0000    0.35150   0.19000   0.94170   Biso      1.000     O          -0.556998           
         O24       1.0000    0.65090   0.89470   0.79180   Biso      1.000     O          -0.551207 