
##########################################################################
#               Crystallographic Information Format file
#               Produced by PyCifRW module
#
#  This is a CIF file.  CIF has been adopted by the International
#  Union of Crystallography as the standard for data archiving and
#  transmission.
#
#  For information on this file format, follow the CIF links at
#  http://www.iucr.org
##########################################################################

data_image0

_cell_length_a                          9.6084
_cell_length_b                          15.8032
_cell_length_c                          23.7927
_cell_angle_alpha                       90
_cell_angle_beta                        96.84
_cell_angle_gamma                       90
_symmetry_space_group_name_H-M          'P 1'
_symmetry_int_tables_number             1
loop_
  _symmetry_equiv_pos_as_xyz
         'x, y, z' 
loop_
  _atom_site_label
  _atom_site_occupancy
  _atom_site_fract_x
  _atom_site_fract_y
  _atom_site_fract_z
  _atom_site_thermal_displace_type
  _atom_site_B_iso_or_equiv
  _atom_site_type_symbol
  _atom_site_charge
         C1        1.0000    0.85110   0.80080   0.24340   Biso      1.000     C          0.140202  
         C2        1.0000    0.91900   0.08210   0.52060   Biso      1.000     C          0.544654  
         C3        1.0000    0.11540   0.13750   0.13350   Biso      1.000     C          -0.190294           
         C4        1.0000    0.14480   0.19390   0.42530   Biso      1.000     C          0.152951  
         C5        1.0000    0.11180   0.14120   0.46800   Biso      1.000     C          -0.177967           
         C6        1.0000    0.29460   0.21560   0.41710   Biso      1.000     C          0.612794  
         C7        1.0000    0.96990   0.13230   0.47390   Biso      1.000     C          0.20495   
         C8        1.0000    0.14670   0.19220   0.09320   Biso      1.000     C          0.155155  
         C9        1.0000    0.92590   0.07570   0.18800   Biso      1.000     C          0.544459  
         C10       1.0000    0.91660   0.21930   0.06740   Biso      1.000     C          0.285193  
         C11       1.0000    0.50580   0.97770   0.13760   Biso      1.000     C          0.526415  
         C12       1.0000    0.48650   0.00990   0.19780   Biso      1.000     C          0.523482  
         C13       1.0000    0.97470   0.13600   0.80450   Biso      1.000     C          0.213781  
         C14       1.0000    0.29780   0.22250   0.74790   Biso      1.000     C          0.609316  
         C15       1.0000    0.11670   0.14470   0.79790   Biso      1.000     C          -0.160006           
         C16       1.0000    0.08020   0.77150   0.26810   Biso      1.000     C          0.282701  
         C17       1.0000    0.07580   0.91390   0.14890   Biso      1.000     C          0.540852  
         C18       1.0000    0.14890   0.19920   0.75660   Biso      1.000     C          0.140206  
         C19       1.0000    0.79780   0.27750   0.24790   Biso      1.000     C          0.609316  
         C20       1.0000    0.88330   0.85530   0.20210   Biso      1.000     C          -0.160001           
         C21       1.0000    0.91320   0.21910   0.39680   Biso      1.000     C          0.274876  
         C22       1.0000    0.70220   0.77750   0.25210   Biso      1.000     C          0.609316  
         C23       1.0000    0.51030   0.98690   0.46940   Biso      1.000     C          0.532966  
         C24       1.0000    0.97460   0.12810   0.14070   Biso      1.000     C          0.217149  
         C25       1.0000    0.61670   0.35530   0.29790   Biso      1.000     C          -0.160007           
         C26       1.0000    0.64890   0.30080   0.25660   Biso      1.000     C          0.140206  
         C27       1.0000    0.42420   0.41390   0.35110   Biso      1.000     C          0.540852  
         C28       1.0000    0.41980   0.27150   0.23190   Biso      1.000     C          0.282702  
         C29       1.0000    0.98650   0.49010   0.69780   Biso      1.000     C          0.523482  
         C30       1.0000    0.00580   0.52230   0.63760   Biso      1.000     C          0.526415  
         C31       1.0000    0.41660   0.28070   0.56740   Biso      1.000     C          0.285193  
         C32       1.0000    0.42590   0.42430   0.68800   Biso      1.000     C          0.544459  
         C33       1.0000    0.64670   0.30780   0.59320   Biso      1.000     C          0.15514   
         C34       1.0000    0.61540   0.36250   0.63350   Biso      1.000     C          -0.190277           
         C35       1.0000    0.79730   0.28570   0.58350   Biso      1.000     C          0.604388  
         C36       1.0000    0.47460   0.37190   0.64070   Biso      1.000     C          0.217147  
         C37       1.0000    0.46990   0.36770   0.97390   Biso      1.000     C          0.20495   
         C38       1.0000    0.79460   0.28440   0.91710   Biso      1.000     C          0.612793  
         C39       1.0000    0.61180   0.35880   0.96800   Biso      1.000     C          -0.17797  
         C40       1.0000    0.64480   0.30610   0.92530   Biso      1.000     C          0.152954  
         C41       1.0000    0.41900   0.41790   0.02060   Biso      1.000     C          0.544654  
         C42       1.0000    0.41320   0.28090   0.89680   Biso      1.000     C          0.274877  
         C43       1.0000    0.01030   0.51310   0.96940   Biso      1.000     C          0.532966  
         C44       1.0000    0.29730   0.21430   0.08350   Biso      1.000     C          0.604387  
         C45       1.0000    0.02530   0.86400   0.19550   Biso      1.000     C          0.21378   
         C46       1.0000    0.47470   0.36400   0.30450   Biso      1.000     C          0.213781  
         C47       1.0000    0.91980   0.22850   0.73190   Biso      1.000     C          0.282702  
         C48       1.0000    0.38460   0.63750   0.36650   Biso      1.000     C          -0.190294           
         C49       1.0000    0.92420   0.08610   0.85110   Biso      1.000     C          0.540852  
         C50       1.0000    0.57410   0.57570   0.31200   Biso      1.000     C          0.544459  
         C51       1.0000    0.58340   0.71930   0.43260   Biso      1.000     C          0.285193  
         C52       1.0000    0.99420   0.47770   0.36240   Biso      1.000     C          0.526415  
         C53       1.0000    0.01350   0.50990   0.30220   Biso      1.000     C          0.523482  
         C54       1.0000    0.98970   0.48690   0.03060   Biso      1.000     C          0.532966  
         C55       1.0000    0.58680   0.71910   0.10320   Biso      1.000     C          0.274876  
         C56       1.0000    0.58100   0.58210   0.97940   Biso      1.000     C          0.544654  
         C57       1.0000    0.35520   0.69390   0.07470   Biso      1.000     C          0.152951  
         C58       1.0000    0.38820   0.64120   0.03200   Biso      1.000     C          -0.177967           
         C59       1.0000    0.20540   0.71560   0.08290   Biso      1.000     C          0.612794  
         C60       1.0000    0.53010   0.63230   0.02610   Biso      1.000     C          0.204949  
         C61       1.0000    0.52530   0.63600   0.69550   Biso      1.000     C          0.213781  
         C62       1.0000    0.20220   0.72250   0.75210   Biso      1.000     C          0.609316  
         C63       1.0000    0.38330   0.64470   0.70210   Biso      1.000     C          -0.160006           
         C64       1.0000    0.35110   0.69920   0.74340   Biso      1.000     C          0.140206  
         C65       1.0000    0.57580   0.58610   0.64890   Biso      1.000     C          0.540852  
         C66       1.0000    0.58020   0.72850   0.76810   Biso      1.000     C          0.282702  
         C67       1.0000    0.20270   0.71430   0.41650   Biso      1.000     C          0.604387  
         C68       1.0000    0.52540   0.62810   0.35930   Biso      1.000     C          0.217149  
         C69       1.0000    0.35330   0.69220   0.40680   Biso      1.000     C          0.155155  
         C70       1.0000    0.08100   0.91790   0.47940   Biso      1.000     C          0.544654  
         C71       1.0000    0.49420   0.02230   0.86240   Biso      1.000     C          0.526415  
         C72       1.0000    0.85520   0.80610   0.57470   Biso      1.000     C          0.152951  
         C73       1.0000    0.88820   0.85880   0.53200   Biso      1.000     C          -0.177967           
         C74       1.0000    0.70540   0.78440   0.58290   Biso      1.000     C          0.612794  
         C75       1.0000    0.03010   0.86770   0.52610   Biso      1.000     C          0.20495   
         C76       1.0000    0.08340   0.78070   0.93260   Biso      1.000     C          0.285193  
         C77       1.0000    0.07410   0.92430   0.81200   Biso      1.000     C          0.544459  
         C78       1.0000    0.51350   0.99010   0.80220   Biso      1.000     C          0.523482  
         C79       1.0000    0.88460   0.86250   0.86650   Biso      1.000     C          -0.190294           
         C80       1.0000    0.70270   0.78570   0.91650   Biso      1.000     C          0.604387  
         C81       1.0000    0.02540   0.87190   0.85930   Biso      1.000     C          0.217149  
         C82       1.0000    0.08680   0.78090   0.60320   Biso      1.000     C          0.274876  
         C83       1.0000    0.48970   0.01310   0.53060   Biso      1.000     C          0.532966  
         C84       1.0000    0.85330   0.80780   0.90680   Biso      1.000     C          0.155155  
         H1        1.0000    0.65600   0.74200   0.45200   Biso      1.000     H          0.074541  
         H2        1.0000    0.85000   0.25900   0.70900   Biso      1.000     H          0.073308  
         H3        1.0000    0.20100   0.11600   0.82300   Biso      1.000     H          0.164003  
         H4        1.0000    0.82100   0.89400   0.51300   Biso      1.000     H          0.171627  
         H5        1.0000    0.31600   0.61400   0.34500   Biso      1.000     H          0.16902   
         H6        1.0000    0.84400   0.24200   0.04800   Biso      1.000     H          0.074541  
         H7        1.0000    0.18400   0.11400   0.15500   Biso      1.000     H          0.16902   
         H8        1.0000    0.14600   0.74700   0.62700   Biso      1.000     H          0.077933  
         H9        1.0000    0.29900   0.61600   0.67700   Biso      1.000     H          0.164003  
         H10       1.0000    0.67900   0.39400   0.98700   Biso      1.000     H          0.171627  
         H11       1.0000    0.35400   0.24700   0.87300   Biso      1.000     H          0.077933  
         H12       1.0000    0.70100   0.38400   0.32300   Biso      1.000     H          0.164003  
         H13       1.0000    0.35000   0.24100   0.20900   Biso      1.000     H          0.073308  
         H14       1.0000    0.65000   0.75900   0.79100   Biso      1.000     H          0.073308  
         H15       1.0000    0.32100   0.60600   0.01300   Biso      1.000     H          0.171627  
         H16       1.0000    0.17900   0.10600   0.48700   Biso      1.000     H          0.171627  
         H17       1.0000    0.85400   0.25300   0.37300   Biso      1.000     H          0.077933  
         H18       1.0000    0.15600   0.75800   0.95200   Biso      1.000     H          0.074541  
         H19       1.0000    0.15000   0.74100   0.29100   Biso      1.000     H          0.073308  
         H20       1.0000    0.34400   0.25800   0.54800   Biso      1.000     H          0.074542  
         H21       1.0000    0.68400   0.38600   0.65500   Biso      1.000     H          0.169019  
         H22       1.0000    0.79900   0.88400   0.17700   Biso      1.000     H          0.164002  
         H23       1.0000    0.64600   0.75300   0.12700   Biso      1.000     H          0.077933  
         H24       1.0000    0.81600   0.88600   0.84500   Biso      1.000     H          0.16902   
         N1        1.0000    0.87690   0.17820   0.77190   Biso      1.000     N          -0.352095           
         N2        1.0000    0.55010   0.25860   0.22260   Biso      1.000     N          -0.31631  
         N3        1.0000    0.62510   0.66880   0.39340   Biso      1.000     N          -0.352821           
         N4        1.0000    0.12510   0.83120   0.89340   Biso      1.000     N          -0.352821           
         N5        1.0000    0.87030   0.17190   0.43860   Biso      1.000     N          -0.35225  
         N6        1.0000    0.87490   0.16880   0.10660   Biso      1.000     N          -0.352821           
         N7        1.0000    0.04770   0.23320   0.05860   Biso      1.000     N          -0.32154  
         N8        1.0000    0.45230   0.73320   0.44140   Biso      1.000     N          -0.32154  
         N9        1.0000    0.95230   0.76680   0.94140   Biso      1.000     N          -0.321541           
         N10       1.0000    0.05010   0.24140   0.72260   Biso      1.000     N          -0.31631  
         N11       1.0000    0.62970   0.67190   0.06140   Biso      1.000     N          -0.35225  
         N12       1.0000    0.12310   0.82180   0.22810   Biso      1.000     N          -0.352095           
         N13       1.0000    0.94990   0.75860   0.27740   Biso      1.000     N          -0.316309           
         N14       1.0000    0.12970   0.82810   0.56140   Biso      1.000     N          -0.35225  
         N15       1.0000    0.37690   0.32180   0.27190   Biso      1.000     N          -0.352095           
         N16       1.0000    0.54770   0.26680   0.55860   Biso      1.000     N          -0.321539           
         N17       1.0000    0.45390   0.73200   0.11170   Biso      1.000     N          -0.325288           
         N18       1.0000    0.44990   0.74140   0.77740   Biso      1.000     N          -0.31631  
         N19       1.0000    0.04610   0.23200   0.38830   Biso      1.000     N          -0.325288           
         N20       1.0000    0.62310   0.67820   0.72810   Biso      1.000     N          -0.352095           
         N21       1.0000    0.95390   0.76800   0.61170   Biso      1.000     N          -0.325288           
         N22       1.0000    0.37030   0.32810   0.93860   Biso      1.000     N          -0.35225  
         N23       1.0000    0.54610   0.26800   0.88830   Biso      1.000     N          -0.325288           
         N24       1.0000    0.37490   0.33120   0.60660   Biso      1.000     N          -0.352821           
         O1        1.0000    0.99100   0.94280   0.44090   Biso      1.000     O          -0.533869           
         O2        1.0000    0.20720   0.92290   0.15050   Biso      1.000     O          -0.593951           
         O3        1.0000    0.52680   0.09650   0.87400   Biso      1.000     O          -0.543075           
         O4        1.0000    0.47480   0.91510   0.79050   Biso      1.000     O          -0.561573           
         O5        1.0000    0.51830   0.08840   0.54350   Biso      1.000     O          -0.560304           
         O6        1.0000    0.68680   0.74580   0.62700   Biso      1.000     O          -0.594987           
         O7        1.0000    0.98510   0.94990   0.77470   Biso      1.000     O          -0.521062           
         O8        1.0000    0.70670   0.56370   0.31640   Biso      1.000     O          -0.60973  
         O9        1.0000    0.97480   0.58490   0.29050   Biso      1.000     O          -0.561573           
         O10       1.0000    0.94300   0.53040   0.39440   Biso      1.000     O          -0.5658   
         O11       1.0000    0.71170   0.57110   0.98170   Biso      1.000     O          -0.597501           
         O12       1.0000    0.11210   0.69320   0.04490   Biso      1.000     O          -0.589492           
         O13       1.0000    0.48730   0.55920   0.60950   Biso      1.000     O          -0.54238  
         O14       1.0000    0.95060   0.54280   0.06190   Biso      1.000     O          -0.557669           
         O15       1.0000    0.18680   0.75420   0.12700   Biso      1.000     O          -0.594987           
         O16       1.0000    0.01830   0.41160   0.04350   Biso      1.000     O          -0.560304           
         O17       1.0000    0.18770   0.77050   0.79230   Biso      1.000     O          -0.581007           
         O18       1.0000    0.10640   0.69220   0.71700   Biso      1.000     O          -0.601056           
         O19       1.0000    0.70720   0.57710   0.65050   Biso      1.000     O          -0.593951           
         O20       1.0000    0.10710   0.68390   0.38230   Biso      1.000     O          -0.591175           
         O21       1.0000    0.49100   0.55720   0.94090   Biso      1.000     O          -0.533869           
         O22       1.0000    0.48510   0.55010   0.27470   Biso      1.000     O          -0.521062           
         O23       1.0000    0.60710   0.81610   0.88230   Biso      1.000     O          -0.591175           
         O24       1.0000    0.44300   0.96960   0.89440   Biso      1.000     O          -0.5658   
         O25       1.0000    0.56400   0.04040   0.76990   Biso      1.000     O          -0.544705           
         O26       1.0000    0.68740   0.73700   0.95640   Biso      1.000     O          -0.587248           
         O27       1.0000    0.02680   0.40350   0.37400   Biso      1.000     O          -0.543075           
         O28       1.0000    0.45060   0.95720   0.56190   Biso      1.000     O          -0.557669           
         O29       1.0000    0.18740   0.76300   0.45640   Biso      1.000     O          -0.587248           
         O30       1.0000    0.06400   0.45960   0.26990   Biso      1.000     O          -0.544705           
         O31       1.0000    0.20670   0.93630   0.81640   Biso      1.000     O          -0.609731           
         O32       1.0000    0.61210   0.80680   0.54490   Biso      1.000     O          -0.589492           
         O33       1.0000    0.98730   0.94080   0.10950   Biso      1.000     O          -0.54238  
         O34       1.0000    0.31260   0.26300   0.04360   Biso      1.000     O          -0.587249           
         O35       1.0000    0.55700   0.03040   0.10560   Biso      1.000     O          -0.5658   
         O36       1.0000    0.39290   0.18390   0.11770   Biso      1.000     O          -0.591175           
         O37       1.0000    0.79330   0.06370   0.18360   Biso      1.000     O          -0.609731           
         O38       1.0000    0.21170   0.92890   0.48170   Biso      1.000     O          -0.597501           
         O39       1.0000    0.51270   0.44080   0.39050   Biso      1.000     O          -0.54238  
         O40       1.0000    0.29330   0.43630   0.68360   Biso      1.000     O          -0.60973  
         O41       1.0000    0.89290   0.31610   0.61770   Biso      1.000     O          -0.591176           
         O42       1.0000    0.05700   0.46960   0.60560   Biso      1.000     O          -0.5658   
         O43       1.0000    0.93600   0.54040   0.73010   Biso      1.000     O          -0.544705           
         O44       1.0000    0.51490   0.44990   0.72530   Biso      1.000     O          -0.521062           
         O45       1.0000    0.50900   0.44280   0.05910   Biso      1.000     O          -0.533869           
         O46       1.0000    0.81260   0.23700   0.54360   Biso      1.000     O          -0.587249           
         O47       1.0000    0.02520   0.41510   0.70950   Biso      1.000     O          -0.561573           
         O48       1.0000    0.97320   0.59650   0.62600   Biso      1.000     O          -0.543075           
         O49       1.0000    0.98170   0.58840   0.95650   Biso      1.000     O          -0.560304           
         O50       1.0000    0.81320   0.24580   0.87300   Biso      1.000     O          -0.594987           
         O51       1.0000    0.04940   0.45720   0.93810   Biso      1.000     O          -0.557669           
         O52       1.0000    0.43600   0.95960   0.23010   Biso      1.000     O          -0.544705           
         O53       1.0000    0.88790   0.30680   0.95510   Biso      1.000     O          -0.589492           
         O54       1.0000    0.28830   0.42890   0.01830   Biso      1.000     O          -0.597501           
         O55       1.0000    0.47320   0.90350   0.12600   Biso      1.000     O          -0.543075           
         O56       1.0000    0.60640   0.80780   0.21700   Biso      1.000     O          -0.601056           
         O57       1.0000    0.68770   0.72950   0.29230   Biso      1.000     O          -0.581007           
         O58       1.0000    0.01270   0.05920   0.89050   Biso      1.000     O          -0.54238  
         O59       1.0000    0.81230   0.22950   0.20770   Biso      1.000     O          -0.581007           
         O60       1.0000    0.31230   0.27050   0.70770   Biso      1.000     O          -0.581007           
         O61       1.0000    0.89360   0.30780   0.28300   Biso      1.000     O          -0.601056           
         O62       1.0000    0.39360   0.19220   0.78300   Biso      1.000     O          -0.601056           
         O63       1.0000    0.52520   0.08490   0.20950   Biso      1.000     O          -0.561573           
         O64       1.0000    0.79280   0.07710   0.84950   Biso      1.000     O          -0.593951           
         O65       1.0000    0.78830   0.07110   0.51830   Biso      1.000     O          -0.597501           
         O66       1.0000    0.38790   0.19320   0.45510   Biso      1.000     O          -0.589492           
         O67       1.0000    0.54940   0.04280   0.43810   Biso      1.000     O          -0.557669           
         O68       1.0000    0.31320   0.25420   0.37300   Biso      1.000     O          -0.594987           
         O69       1.0000    0.48170   0.91160   0.45650   Biso      1.000     O          -0.560304           
         O70       1.0000    0.01490   0.05010   0.22530   Biso      1.000     O          -0.521062           
         O71       1.0000    0.00900   0.05720   0.55910   Biso      1.000     O          -0.533869           
         O72       1.0000    0.29280   0.42290   0.34950   Biso      1.000     O          -0.593951           
         Y1        1.0000    0.13081   0.32542   0.97801   Biso      1.000     Y          1.706275  
         Y2        1.0000    0.13449   0.32187   0.30701   Biso      1.000     Y          1.710123  
         Y3        1.0000    0.36919   0.82542   0.52199   Biso      1.000     Y          1.706275  
         Y4        1.0000    0.63386   0.16520   0.14242   Biso      1.000     Y          1.71204   
         Y5        1.0000    0.36614   0.83480   0.85758   Biso      1.000     Y          1.71204   
         Y6        1.0000    0.13386   0.33480   0.64242   Biso      1.000     Y          1.71204   
         Y7        1.0000    0.86614   0.66520   0.35758   Biso      1.000     Y          1.71204   
         Y8        1.0000    0.63449   0.17813   0.80701   Biso      1.000     Y          1.710123  
         Y9        1.0000    0.36551   0.82187   0.19299   Biso      1.000     Y          1.710123  
         Y10       1.0000    0.63081   0.17458   0.47801   Biso      1.000     Y          1.706274  
         Y11       1.0000    0.86551   0.67813   0.69299   Biso      1.000     Y          1.710123  
         Y12       1.0000    0.86919   0.67458   0.02199   Biso      1.000     Y          1.706275 