
##########################################################################
#               Crystallographic Information Format file
#               Produced by PyCifRW module
#
#  This is a CIF file.  CIF has been adopted by the International
#  Union of Crystallography as the standard for data archiving and
#  transmission.
#
#  For information on this file format, follow the CIF links at
#  http://www.iucr.org
##########################################################################

data_image0

_cell_length_a                          9.6084
_cell_length_b                          15.803
_cell_length_c                          7.9309
_cell_angle_alpha                       90
_cell_angle_beta                        96.84
_cell_angle_gamma                       90
_symmetry_space_group_name_H-M          'P 1'
_symmetry_int_tables_number             1
loop_
  _symmetry_equiv_pos_as_xyz
         'x, y, z' 
loop_
  _atom_site_label
  _atom_site_occupancy
  _atom_site_fract_x
  _atom_site_fract_y
  _atom_site_fract_z
  _atom_site_thermal_displace_type
  _atom_site_B_iso_or_equiv
  _atom_site_type_symbol
  _atom_site_charge
         C1        1.0000    0.91640   0.22230   0.19630   Biso      1.000     C          0.285118  
         C2        1.0000    0.11460   0.14120   0.39950   Biso      1.000     C          -0.17416900000000002          
         C3        1.0000    0.14680   0.19530   0.27530   Biso      1.000     C          0.150079  
         C4        1.0000    0.47320   0.36770   0.91920   Biso      1.000     C          0.21039699999999997           
         C5        1.0000    0.79670   0.28260   0.74850   Biso      1.000     C          0.610636  
         C6        1.0000    0.61460   0.35880   0.89950   Biso      1.000     C          -0.17416900000000002          
         C7        1.0000    0.64680   0.30470   0.77530   Biso      1.000     C          0.150079  
         C8        1.0000    0.42320   0.41870   0.05960   Biso      1.000     C          0.541071  
         C9        1.0000    0.41640   0.27770   0.69630   Biso      1.000     C          0.285118  
         C10       1.0000    0.00980   0.51500   0.90930   Biso      1.000     C          0.5295880000000001  
         C11       1.0000    0.92320   0.08130   0.55960   Biso      1.000     C          0.541071  
         C12       1.0000    0.99020   0.48500   0.09070   Biso      1.000     C          0.5295880000000001  
         C13       1.0000    0.58360   0.72230   0.30370   Biso      1.000     C          0.285118  
         C14       1.0000    0.57680   0.58130   0.94040   Biso      1.000     C          0.541071  
         C15       1.0000    0.50980   0.98500   0.40930   Biso      1.000     C          0.5295880000000001  
         C16       1.0000    0.35320   0.69530   0.22470   Biso      1.000     C          0.150072  
         C17       1.0000    0.38540   0.64120   0.10050   Biso      1.000     C          -0.17416199999999998          
         C18       1.0000    0.20330   0.71740   0.25150   Biso      1.000     C          0.610637  
         C19       1.0000    0.52680   0.63230   0.08080   Biso      1.000     C          0.210396  
         C20       1.0000    0.02680   0.86770   0.58080   Biso      1.000     C          0.210396  
         C21       1.0000    0.70330   0.78260   0.75150   Biso      1.000     C          0.610636  
         C22       1.0000    0.88540   0.85880   0.60050   Biso      1.000     C          -0.17416900000000002          
         C23       1.0000    0.85320   0.80470   0.72470   Biso      1.000     C          0.150079  
         C24       1.0000    0.07680   0.91870   0.44040   Biso      1.000     C          0.541071  
         C25       1.0000    0.08360   0.77770   0.80370   Biso      1.000     C          0.285118  
         C26       1.0000    0.49020   0.01500   0.59070   Biso      1.000     C          0.5295880000000001  
         C27       1.0000    0.97320   0.13230   0.41920   Biso      1.000     C          0.21039699999999997           
         C28       1.0000    0.29670   0.21740   0.24850   Biso      1.000     C          0.610636  
         H1        1.0000    0.84490   0.25070   0.12243   Biso      1.000     H          0.07424700000000001           
         H2        1.0000    0.81393   0.88917   0.53017   Biso      1.000     H          0.16689500000000002           
         H3        1.0000    0.34490   0.24930   0.62243   Biso      1.000     H          0.07424700000000001           
         H4        1.0000    0.18607   0.11083   0.46983   Biso      1.000     H          0.16689600000000002           
         H5        1.0000    0.68607   0.38917   0.96983   Biso      1.000     H          0.16689500000000002           
         H6        1.0000    0.15510   0.74930   0.87757   Biso      1.000     H          0.07424700000000001           
         H7        1.0000    0.31393   0.61083   0.03017   Biso      1.000     H          0.16689500000000002           
         H8        1.0000    0.65510   0.75070   0.37757   Biso      1.000     H          0.07424700000000001           
         N1        1.0000    0.62590   0.67300   0.18290   Biso      1.000     N          -0.355132           
         N2        1.0000    0.45200   0.73550   0.33050   Biso      1.000     N          -0.323251           
         N3        1.0000    0.95200   0.76450   0.83050   Biso      1.000     N          -0.323252           
         N4        1.0000    0.12590   0.82700   0.68290   Biso      1.000     N          -0.355132           
         N5        1.0000    0.54800   0.26450   0.66950   Biso      1.000     N          -0.323252           
         N6        1.0000    0.37410   0.32700   0.81710   Biso      1.000     N          -0.355133           
         N7        1.0000    0.04800   0.23550   0.16950   Biso      1.000     N          -0.323252           
         N8        1.0000    0.87410   0.17300   0.31710   Biso      1.000     N          -0.355132           
         O1        1.0000    0.81280   0.23750   0.62430   Biso      1.000     O          -0.5882189999999999           
         O2        1.0000    0.70870   0.57060   0.94850   Biso      1.000     O          -0.599761           
         O3        1.0000    0.10860   0.68972   0.14420   Biso      1.000     O          -0.5932529999999999           
         O4        1.0000    0.94330   0.53800   0.18650   Biso      1.000     O          -0.558149           
         O5        1.0000    0.98800   0.94449   0.32510   Biso      1.000     O          -0.530767           
         O6        1.0000    0.18720   0.76250   0.37570   Biso      1.000     O          -0.5882189999999999           
         O7        1.0000    0.02350   0.41004   0.12690   Biso      1.000     O          -0.556786           
         O8        1.0000    0.29130   0.42940   0.05150   Biso      1.000     O          -0.599761           
         O9        1.0000    0.89140   0.31028   0.85580   Biso      1.000     O          -0.593252           
         O10       1.0000    0.52350   0.08996   0.62690   Biso      1.000     O          -0.556786           
         O11       1.0000    0.68720   0.73750   0.87570   Biso      1.000     O          -0.5882189999999999           
         O12       1.0000    0.97650   0.58996   0.87310   Biso      1.000     O          -0.556786           
         O13       1.0000    0.44330   0.96200   0.68650   Biso      1.000     O          -0.55815  
         O14       1.0000    0.20870   0.92940   0.44850   Biso      1.000     O          -0.599761           
         O15       1.0000    0.48800   0.55551   0.82510   Biso      1.000     O          -0.530767           
         O16       1.0000    0.01200   0.05551   0.67490   Biso      1.000     O          -0.530767           
         O17       1.0000    0.05670   0.46200   0.81350   Biso      1.000     O          -0.55815  
         O18       1.0000    0.79130   0.07060   0.55150   Biso      1.000     O          -0.599761           
         O19       1.0000    0.51200   0.44449   0.17490   Biso      1.000     O          -0.530767           
         O20       1.0000    0.39140   0.18972   0.35580   Biso      1.000     O          -0.5932529999999999           
         O21       1.0000    0.55670   0.03800   0.31350   Biso      1.000     O          -0.55815  
         O22       1.0000    0.31280   0.26250   0.12430   Biso      1.000     O          -0.5882189999999999           
         O23       1.0000    0.47650   0.91004   0.37310   Biso      1.000     O          -0.556786           
         O24       1.0000    0.60860   0.81028   0.64420   Biso      1.000     O          -0.5932529999999999           
         Y1        1.0000    0.36694   0.82737   0.57257   Biso      1.000     Y          1.7114580000000001  
         Y2        1.0000    0.13306   0.32737   0.92743   Biso      1.000     Y          1.7114580000000001  
         Y3        1.0000    0.63306   0.17263   0.42743   Biso      1.000     Y          1.7114580000000001  
         Y4        1.0000    0.86694   0.67263   0.07257   Biso      1.000     Y          1.7114580000000001 