
##########################################################################
#               Crystallographic Information Format file
#               Produced by PyCifRW module
#
#  This is a CIF file.  CIF has been adopted by the International
#  Union of Crystallography as the standard for data archiving and
#  transmission.
#
#  For information on this file format, follow the CIF links at
#  http://www.iucr.org
##########################################################################

data_image0

_cell_length_a                          13.0022
_cell_length_b                          13.3793
_cell_length_c                          25.8929
_cell_angle_alpha                       84.06
_cell_angle_beta                        88.104
_cell_angle_gamma                       66.361
_symmetry_space_group_name_H-M          'P 1'
_symmetry_int_tables_number             1
loop_
  _symmetry_equiv_pos_as_xyz
         'x, y, z' 
loop_
  _atom_site_label
  _atom_site_occupancy
  _atom_site_fract_x
  _atom_site_fract_y
  _atom_site_fract_z
  _atom_site_thermal_displace_type
  _atom_site_B_iso_or_equiv
  _atom_site_type_symbol
  _atom_site_charge
         C1        1.0000    0.47320   0.37760   0.33860   Biso      1.000     C          -0.096584           
         C2        1.0000    0.09100   0.65810   0.26600   Biso      1.000     C          -0.519367           
         C3        1.0000    0.67810   0.44390   0.66920   Biso      1.000     C          -0.140488           
         C4        1.0000    0.52680   0.62240   0.66140   Biso      1.000     C          -0.096584           
         C5        1.0000    0.18500   0.97150   0.28400   Biso      1.000     C          -0.146646           
         C6        1.0000    0.54950   0.64180   0.71040   Biso      1.000     C          -0.13802  
         C7        1.0000    0.63990   0.56110   0.73860   Biso      1.000     C          0.032433  
         C8        1.0000    0.70310   0.46220   0.71820   Biso      1.000     C          0.022614  
         C9        1.0000    0.24500   0.97860   0.23890   Biso      1.000     C          0.01499   
         C10       1.0000    0.36240   0.92880   0.23900   Biso      1.000     C          0.024053  
         C11       1.0000    0.76430   0.28750   0.77810   Biso      1.000     C          -0.522286           
         C12       1.0000    0.41020   0.95310   0.18690   Biso      1.000     C          0.195605  
         C13       1.0000    0.48450   0.01520   0.19340   Biso      1.000     C          -0.5237   
         C14       1.0000    0.90900   0.34190   0.73400   Biso      1.000     C          -0.519367           
         C15       1.0000    0.79360   0.38640   0.75690   Biso      1.000     C          0.189682  
         C16       1.0000    0.77860   0.46020   0.79970   Biso      1.000     C          0.024883  
         C17       1.0000    0.68580   0.55910   0.78980   Biso      1.000     C          0.021739  
         C18       1.0000    0.65340   0.63730   0.82520   Biso      1.000     C          -0.135693           
         C19       1.0000    0.71550   0.61540   0.87070   Biso      1.000     C          -0.109126           
         C20       1.0000    0.47410   0.84860   0.16080   Biso      1.000     C          -0.521371           
         C21       1.0000    0.84210   0.44020   0.84510   Biso      1.000     C          -0.151746           
         C22       1.0000    0.80910   0.51940   0.88050   Biso      1.000     C          -0.02824  
         C23       1.0000    0.26240   0.98920   0.68930   Biso      1.000     C          0.017085  
         C24       1.0000    0.82540   0.78770   0.96310   Biso      1.000     C          0.599176  
         C25       1.0000    0.59020   0.52470   0.64060   Biso      1.000     C          -0.041242           
         C26       1.0000    0.56150   0.50500   0.58780   Biso      1.000     C          0.708456  
         C27       1.0000    0.36010   0.43890   0.26140   Biso      1.000     C          0.032433  
         C28       1.0000    0.29690   0.53780   0.28180   Biso      1.000     C          0.022613  
         C29       1.0000    0.09790   0.99950   0.74630   Biso      1.000     C          -0.525293           
         C30       1.0000    0.28420   0.08170   0.67420   Biso      1.000     C          0.022606  
         C31       1.0000    0.32610   0.09720   0.62490   Biso      1.000     C          -0.123513           
         C32       1.0000    0.29440   0.89090   0.78030   Biso      1.000     C          -0.523019           
         C33       1.0000    0.21930   0.99120   0.74490   Biso      1.000     C          0.190575  
         C34       1.0000    0.22280   0.09760   0.75960   Biso      1.000     C          0.013773  
         C35       1.0000    0.25770   0.15100   0.71730   Biso      1.000     C          0.023932  
         C36       1.0000    0.34350   0.01730   0.59070   Biso      1.000     C          -0.105689           
         C37       1.0000    0.26520   0.25050   0.72090   Biso      1.000     C          -0.12896  
         C38       1.0000    0.23900   0.29600   0.76800   Biso      1.000     C          -0.111308           
         C39       1.0000    0.27790   0.91150   0.65500   Biso      1.000     C          -0.17041  
         C40       1.0000    0.81500   0.85470   0.91240   Biso      1.000     C          -0.013164           
         C41       1.0000    0.19880   0.14160   0.80670   Biso      1.000     C          -0.164446           
         C42       1.0000    0.19060   0.28810   0.86190   Biso      1.000     C          0.584033  
         C43       1.0000    0.32190   0.55610   0.33080   Biso      1.000     C          -0.140487           
         C44       1.0000    0.31870   0.92650   0.60540   Biso      1.000     C          -0.016466           
         C45       1.0000    0.40980   0.47530   0.35940   Biso      1.000     C          -0.041242           
         C46       1.0000    0.43850   0.49500   0.41220   Biso      1.000     C          0.708456  
         C47       1.0000    0.33310   0.84570   0.56690   Biso      1.000     C          0.589961  
         C48       1.0000    0.42390   0.79920   0.37760   Biso      1.000     C          0.621369  
         C49       1.0000    0.23570   0.71250   0.22190   Biso      1.000     C          -0.522286           
         C50       1.0000    0.36160   0.86170   0.32850   Biso      1.000     C          -0.01576  
         C51       1.0000    0.42090   0.86960   0.28370   Biso      1.000     C          -0.156623           
         C52       1.0000    0.24450   0.91310   0.32850   Biso      1.000     C          -0.125169           
         C53       1.0000    0.20850   0.24100   0.81080   Biso      1.000     C          -0.013411           
         C54       1.0000    0.91000   0.84900   0.88340   Biso      1.000     C          -0.111706           
         C55       1.0000    0.87830   0.50260   0.92870   Biso      1.000     C          0.691808  
         C56       1.0000    0.17460   0.21230   0.03690   Biso      1.000     C          0.599176  
         C57       1.0000    0.57910   0.13040   0.71630   Biso      1.000     C          -0.156623           
         C58       1.0000    0.63840   0.13830   0.67150   Biso      1.000     C          -0.015759           
         C59       1.0000    0.57610   0.20080   0.62240   Biso      1.000     C          0.621369  
         C60       1.0000    0.31420   0.44090   0.21020   Biso      1.000     C          0.021739  
         C61       1.0000    0.66690   0.15430   0.43310   Biso      1.000     C          0.589961  
         C62       1.0000    0.68130   0.07350   0.39460   Biso      1.000     C          -0.016466           
         C63       1.0000    0.70830   0.91990   0.89200   Biso      1.000     C          -0.163601           
         C64       1.0000    0.72210   0.08850   0.34500   Biso      1.000     C          -0.17041  
         C65       1.0000    0.12170   0.49740   0.07130   Biso      1.000     C          0.691808  
         C66       1.0000    0.18500   0.14530   0.08760   Biso      1.000     C          -0.013164           
         C67       1.0000    0.65650   0.98270   0.40930   Biso      1.000     C          -0.105689           
         C68       1.0000    0.67390   0.90280   0.37510   Biso      1.000     C          -0.123513           
         C69       1.0000    0.71580   0.91830   0.32580   Biso      1.000     C          0.022605  
         C70       1.0000    0.73760   0.01080   0.31070   Biso      1.000     C          0.017086  
         C71       1.0000    0.15790   0.55980   0.15490   Biso      1.000     C          -0.151746           
         C72       1.0000    0.74230   0.84900   0.28270   Biso      1.000     C          0.023932  
         C73       1.0000    0.28450   0.38460   0.12930   Biso      1.000     C          -0.109126           
         C74       1.0000    0.90210   0.00050   0.25370   Biso      1.000     C          -0.525293           
         C75       1.0000    0.77720   0.90240   0.24040   Biso      1.000     C          0.013773  
         C76       1.0000    0.34660   0.36270   0.17480   Biso      1.000     C          -0.135693           
         C77       1.0000    0.19090   0.48060   0.11950   Biso      1.000     C          -0.02824  
         C78       1.0000    0.78070   0.00880   0.25510   Biso      1.000     C          0.190575  
         C79       1.0000    0.75550   0.08690   0.67150   Biso      1.000     C          -0.12517  
         C80       1.0000    0.22140   0.53980   0.20030   Biso      1.000     C          0.024883  
         C81       1.0000    0.45050   0.35820   0.28960   Biso      1.000     C          -0.138021           
         C82       1.0000    0.80940   0.71190   0.13810   Biso      1.000     C          0.584033  
         C83       1.0000    0.90010   0.90210   0.83380   Biso      1.000     C          -0.150495           
         C84       1.0000    0.79300   0.96390   0.81330   Biso      1.000     C          0.024074  
         C85       1.0000    0.69670   0.97470   0.84280   Biso      1.000     C          0.018516  
         C86       1.0000    0.30330   0.02530   0.15720   Biso      1.000     C          0.018516  
         C87       1.0000    0.20700   0.03610   0.18670   Biso      1.000     C          0.024075  
         C88       1.0000    0.09990   0.09790   0.16620   Biso      1.000     C          -0.150496           
         C89       1.0000    0.52590   0.15140   0.83920   Biso      1.000     C          -0.521371           
         C90       1.0000    0.73480   0.74950   0.27910   Biso      1.000     C          -0.12896  
         C91       1.0000    0.79150   0.75900   0.18920   Biso      1.000     C          -0.013411           
         C92       1.0000    0.80120   0.85840   0.19330   Biso      1.000     C          -0.164446           
         C93       1.0000    0.29170   0.08010   0.10800   Biso      1.000     C          -0.163601           
         C94       1.0000    0.20640   0.61360   0.24310   Biso      1.000     C          0.189682  
         C95       1.0000    0.51550   0.98480   0.80660   Biso      1.000     C          -0.5237   
         C96       1.0000    0.58980   0.04690   0.81310   Biso      1.000     C          0.195605  
         C97       1.0000    0.76100   0.70400   0.23200   Biso      1.000     C          -0.111308           
         C98       1.0000    0.63760   0.07120   0.76100   Biso      1.000     C          0.024053  
         C99       1.0000    0.75500   0.02140   0.76110   Biso      1.000     C          0.01499   
         C100      1.0000    0.09000   0.15100   0.11660   Biso      1.000     C          -0.111705           
         C101      1.0000    0.81500   0.02850   0.71600   Biso      1.000     C          -0.146645           
         C102      1.0000    0.70560   0.10910   0.21970   Biso      1.000     C          -0.523019           
         H1        1.0000    0.37190   0.02520   0.55780   Biso      1.000     H          0.130123  
         H2        1.0000    0.34200   0.15840   0.61520   Biso      1.000     H          0.132225  
         H3        1.0000    0.53640   0.80040   0.18240   Biso      1.000     H          0.158388  
         H4        1.0000    0.26150   0.85060   0.66470   Biso      1.000     H          0.12935   
         H5        1.0000    0.30660   0.33350   0.10500   Biso      1.000     H          0.120715  
         H6        1.0000    0.09470   0.62470   0.14840   Biso      1.000     H          0.133049  
         H7        1.0000    0.49890   0.83570   0.28370   Biso      1.000     H          0.120378  
         H8        1.0000    0.20580   0.90810   0.35890   Biso      1.000     H          0.111207  
         H9        1.0000    0.10700   0.00510   0.28410   Biso      1.000     H          0.113458  
         H10       1.0000    0.01890   0.19140   0.10220   Biso      1.000     H          0.116934  
         H11       1.0000    0.44210   0.08130   0.20920   Biso      1.000     H          0.154025  
         H12       1.0000    0.35510   0.07340   0.08860   Biso      1.000     H          0.130729  
         H13       1.0000    0.54800   0.97000   0.21510   Biso      1.000     H          0.154995  
         H14       1.0000    0.03640   0.10330   0.18530   Biso      1.000     H          0.114471  
         H15       1.0000    0.51010   0.03340   0.16000   Biso      1.000     H          0.160738  
         H16       1.0000    0.50130   0.86710   0.12780   Biso      1.000     H          0.162583  
         H17       1.0000    0.42500   0.81270   0.15560   Biso      1.000     H          0.157645  
         H18       1.0000    0.40870   0.29690   0.18150   Biso      1.000     H          0.117163  
         H19       1.0000    0.07060   0.00600   0.78130   Biso      1.000     H          0.161121  
         H20       1.0000    0.72010   0.37790   0.65570   Biso      1.000     H          0.126038  
         H21       1.0000    0.05160   0.06290   0.72430   Biso      1.000     H          0.158614  
         H22       1.0000    0.96360   0.89670   0.81470   Biso      1.000     H          0.114471  
         H23       1.0000    0.57500   0.18730   0.84440   Biso      1.000     H          0.157645  
         H24       1.0000    0.46360   0.19960   0.81760   Biso      1.000     H          0.158388  
         H25       1.0000    0.49870   0.13290   0.87220   Biso      1.000     H          0.162583  
         H26       1.0000    0.48990   0.96660   0.84000   Biso      1.000     H          0.160738  
         H27       1.0000    0.45200   0.03000   0.78490   Biso      1.000     H          0.154995  
         H28       1.0000    0.55790   0.91870   0.79080   Biso      1.000     H          0.154025  
         H29       1.0000    0.89300   0.99490   0.71590   Biso      1.000     H          0.113458  
         H30       1.0000    0.79420   0.09190   0.64110   Biso      1.000     H          0.111207  
         H31       1.0000    0.50110   0.16430   0.71630   Biso      1.000     H          0.120378  
         H32       1.0000    0.64490   0.92660   0.91140   Biso      1.000     H          0.130729  
         H33       1.0000    0.73850   0.14940   0.33530   Biso      1.000     H          0.12935   
         H34       1.0000    0.65800   0.84160   0.38480   Biso      1.000     H          0.132225  
         H35       1.0000    0.92940   0.99400   0.21870   Biso      1.000     H          0.161121  
         H36       1.0000    0.90430   0.06510   0.26580   Biso      1.000     H          0.158901  
         H37       1.0000    0.94840   0.93710   0.27570   Biso      1.000     H          0.158614  
         H38       1.0000    0.62970   0.11430   0.22100   Biso      1.000     H          0.157501  
         H39       1.0000    0.70790   0.17410   0.23120   Biso      1.000     H          0.159878  
         H40       1.0000    0.73210   0.10190   0.18470   Biso      1.000     H          0.165194  
         H41       1.0000    0.71270   0.71420   0.30730   Biso      1.000     H          0.133351  
         H42       1.0000    0.75830   0.63640   0.22890   Biso      1.000     H          0.125487  
         H43       1.0000    0.82340   0.89380   0.16510   Biso      1.000     H          0.133765  
         H44       1.0000    0.62810   0.97480   0.44220   Biso      1.000     H          0.130123  
         H45       1.0000    0.98110   0.80860   0.89780   Biso      1.000     H          0.116934  
         H46       1.0000    0.90530   0.37530   0.85160   Biso      1.000     H          0.133049  
         H47       1.0000    0.69340   0.66650   0.89500   Biso      1.000     H          0.120715  
         H48       1.0000    0.37030   0.88570   0.77900   Biso      1.000     H          0.157501  
         H49       1.0000    0.29210   0.82590   0.76880   Biso      1.000     H          0.159878  
         H50       1.0000    0.26790   0.89810   0.81530   Biso      1.000     H          0.165194  
         H51       1.0000    0.28730   0.28580   0.69270   Biso      1.000     H          0.133351  
         H52       1.0000    0.24170   0.36360   0.77110   Biso      1.000     H          0.125487  
         H53       1.0000    0.17660   0.10620   0.83490   Biso      1.000     H          0.133765  
         H54       1.0000    0.53230   0.32400   0.35800   Biso      1.000     H          0.116338  
         H55       1.0000    0.27990   0.62210   0.34430   Biso      1.000     H          0.126038  
         H56       1.0000    0.08610   0.70590   0.29200   Biso      1.000     H          0.159687  
         H57       1.0000    0.03580   0.69710   0.23930   Biso      1.000     H          0.160396  
         H58       1.0000    0.18660   0.75330   0.19330   Biso      1.000     H          0.163754  
         H59       1.0000    0.22620   0.75930   0.24900   Biso      1.000     H          0.157468  
         H60       1.0000    0.49430   0.29310   0.27580   Biso      1.000     H          0.117894  
         H61       1.0000    0.31210   0.68590   0.21050   Biso      1.000     H          0.158607  
         H62       1.0000    0.46770   0.67600   0.64200   Biso      1.000     H          0.116338  
         H63       1.0000    0.50570   0.70690   0.72420   Biso      1.000     H          0.117894  
         H64       1.0000    0.68790   0.31410   0.78950   Biso      1.000     H          0.158607  
         H65       1.0000    0.77380   0.24070   0.75100   Biso      1.000     H          0.157468  
         H66       1.0000    0.81340   0.24670   0.80670   Biso      1.000     H          0.163754  
         H67       1.0000    0.96420   0.30290   0.76070   Biso      1.000     H          0.160396  
         H68       1.0000    0.91390   0.29410   0.70800   Biso      1.000     H          0.159687  
         H69       1.0000    0.92230   0.40390   0.71850   Biso      1.000     H          0.156316  
         H70       1.0000    0.59130   0.70310   0.81850   Biso      1.000     H          0.117163  
         H71       1.0000    0.09570   0.93490   0.73420   Biso      1.000     H          0.158901  
         H72       1.0000    0.07770   0.59610   0.28150   Biso      1.000     H          0.156316  
         O1        1.0000    0.61170   0.41180   0.57347   Biso      1.000     O          -0.722552           
         O2        1.0000    0.18770   0.38300   0.86429   Biso      1.000     O          -0.693342           
         O3        1.0000    0.28210   0.78270   0.57297   Biso      1.000     O          -0.671003           
         O4        1.0000    0.39610   0.84380   0.52786   Biso      1.000     O          -0.643573           
         O5        1.0000    0.36730   0.80730   0.41862   Biso      1.000     O          -0.732175           
         O6        1.0000    0.07730   0.27560   0.01907   Biso      1.000     O          -0.645692           
         O7        1.0000    0.26150   0.20880   0.01309   Biso      1.000     O          -0.64618  
         O8        1.0000    0.16330   0.43690   0.03655   Biso      1.000     O          -0.726064           
         O9        1.0000    0.02420   0.57120   0.06996   Biso      1.000     O          -0.679234           
         O10       1.0000    0.18050   0.23130   0.90270   Biso      1.000     O          -0.625434           
         O11       1.0000    0.52820   0.74370   0.37460   Biso      1.000     O          -0.599753           
         O12       1.0000    0.38830   0.58820   0.42653   Biso      1.000     O          -0.722552           
         O13       1.0000    0.51130   0.41650   0.43909   Biso      1.000     O          -0.757599           
         O14       1.0000    0.48870   0.58350   0.56091   Biso      1.000     O          -0.757599           
         O15       1.0000    0.97580   0.42880   0.93004   Biso      1.000     O          -0.679234           
         O16       1.0000    0.83670   0.56310   0.96345   Biso      1.000     O          -0.726064           
         O17       1.0000    0.73850   0.79120   0.98691   Biso      1.000     O          -0.64618  
         O18       1.0000    0.92270   0.72440   0.98093   Biso      1.000     O          -0.645692           
         O19       1.0000    0.47180   0.25630   0.62540   Biso      1.000     O          -0.599753           
         O20       1.0000    0.63270   0.19270   0.58138   Biso      1.000     O          -0.732175           
         O21       1.0000    0.60390   0.15620   0.47214   Biso      1.000     O          -0.643573           
         O22       1.0000    0.71790   0.21730   0.42703   Biso      1.000     O          -0.671003           
         O23       1.0000    0.81230   0.61700   0.13571   Biso      1.000     O          -0.693342           
         O24       1.0000    0.81950   0.76870   0.09730   Biso      1.000     O          -0.625434           
         Tb1       1.0000    0.37484   0.69328   0.49418   Biso      1.000     Tb          2.085105  
         Tb2       1.0000    0.84212   0.62555   0.04299   Biso      1.000     Tb          2.031191  
         Tb3       1.0000    0.15788   0.37445   0.95701   Biso      1.000     Tb          2.031191  
         Tb4       1.0000    0.62516   0.30672   0.50582   Biso      1.000     Tb          2.085105 