
##########################################################################
#               Crystallographic Information Format file
#               Produced by PyCifRW module
#
#  This is a CIF file.  CIF has been adopted by the International
#  Union of Crystallography as the standard for data archiving and
#  transmission.
#
#  For information on this file format, follow the CIF links at
#  http://www.iucr.org
##########################################################################

data_image0

_cell_length_a                          36.417
_cell_length_b                          9.831
_cell_length_c                          10.995
_cell_angle_alpha                       90
_cell_angle_beta                        106.189
_cell_angle_gamma                       90
_symmetry_space_group_name_H-M          'P 1'
_symmetry_int_tables_number             1
loop_
  _symmetry_equiv_pos_as_xyz
         'x, y, z' 
loop_
  _atom_site_label
  _atom_site_occupancy
  _atom_site_fract_x
  _atom_site_fract_y
  _atom_site_fract_z
  _atom_site_thermal_displace_type
  _atom_site_B_iso_or_equiv
  _atom_site_type_symbol
  _atom_site_charge
         C1        1.0000    0.95850   0.61190   0.50510   Biso      1.000     C          -0.150199           
         C2        1.0000    0.47940   0.01510   0.46440   Biso      1.000     C          0.08067300000000001           
         C3        1.0000    0.46060   0.05710   0.85930   Biso      1.000     C          -0.15462599999999999          
         C4        1.0000    0.27767   0.03460   0.39480   Biso      1.000     C          0.5691689999999999  
         C5        1.0000    0.24461   0.92100   0.24190   Biso      1.000     C          0.154829  
         C6        1.0000    0.74461   0.57900   0.74190   Biso      1.000     C          0.154829  
         C7        1.0000    0.77767   0.46540   0.89480   Biso      1.000     C          0.5691689999999999  
         C8        1.0000    0.96060   0.44290   0.35930   Biso      1.000     C          -0.15462599999999999          
         C9        1.0000    0.02060   0.48490   0.53560   Biso      1.000     C          0.08067300000000001           
         C10       1.0000    0.13757   0.40570   0.73500   Biso      1.000     C          0.593605  
         C11       1.0000    0.92290   0.46670   0.29460   Biso      1.000     C          -0.10028300000000001          
         C12       1.0000    0.09750   0.43780   0.66380   Biso      1.000     C          -0.021471           
         C13       1.0000    0.92110   0.63600   0.44300   Biso      1.000     C          -0.10102699999999999          
         C14       1.0000    0.04150   0.38810   0.49490   Biso      1.000     C          -0.15019100000000002          
         C15       1.0000    0.92290   0.53330   0.79460   Biso      1.000     C          -0.100286           
         C16       1.0000    0.90250   0.56220   0.33620   Biso      1.000     C          -0.021459           
         C17       1.0000    0.86243   0.59430   0.26500   Biso      1.000     C          0.593604  
         C18       1.0000    0.97940   0.51510   0.46440   Biso      1.000     C          0.080687  
         C19       1.0000    0.36243   0.09430   0.26500   Biso      1.000     C          0.593605  
         C20       1.0000    0.07890   0.36400   0.55700   Biso      1.000     C          -0.10102699999999999          
         C21       1.0000    0.40250   0.06220   0.33620   Biso      1.000     C          -0.02147  
         C22       1.0000    0.42290   0.03330   0.79460   Biso      1.000     C          -0.100284           
         C23       1.0000    0.92110   0.36400   0.94300   Biso      1.000     C          -0.101033           
         C24       1.0000    0.77767   0.53460   0.39480   Biso      1.000     C          0.569168  
         C25       1.0000    0.95850   0.38810   0.00510   Biso      1.000     C          -0.15019200000000002          
         C26       1.0000    0.90250   0.43780   0.83620   Biso      1.000     C          -0.021458           
         C27       1.0000    0.86243   0.40570   0.76500   Biso      1.000     C          0.593604  
         C28       1.0000    0.97940   0.48490   0.96440   Biso      1.000     C          0.080678  
         C29       1.0000    0.74461   0.42100   0.24190   Biso      1.000     C          0.15483   
         C30       1.0000    0.24461   0.07900   0.74190   Biso      1.000     C          0.154829  
         C31       1.0000    0.47940   0.98490   0.96440   Biso      1.000     C          0.08068   
         C32       1.0000    0.36243   0.90570   0.76500   Biso      1.000     C          0.593604  
         C33       1.0000    0.40250   0.93780   0.83620   Biso      1.000     C          -0.021459           
         C34       1.0000    0.27767   0.96540   0.89480   Biso      1.000     C          0.5691689999999999  
         C35       1.0000    0.45850   0.88810   0.00510   Biso      1.000     C          -0.15019200000000002          
         C36       1.0000    0.46060   0.94290   0.35930   Biso      1.000     C          -0.154621           
         C37       1.0000    0.42110   0.86400   0.94300   Biso      1.000     C          -0.10102799999999999          
         C38       1.0000    0.42290   0.96670   0.29460   Biso      1.000     C          -0.100271           
         C39       1.0000    0.42110   0.13600   0.44300   Biso      1.000     C          -0.101033           
         C40       1.0000    0.45850   0.11190   0.50510   Biso      1.000     C          -0.15018499999999999          
         C41       1.0000    0.07710   0.53330   0.70540   Biso      1.000     C          -0.100272           
         C42       1.0000    0.96060   0.55710   0.85930   Biso      1.000     C          -0.154618           
         C43       1.0000    0.59750   0.93780   0.66380   Biso      1.000     C          -0.02147  
         C44       1.0000    0.63757   0.90570   0.73500   Biso      1.000     C          0.593605  
         C45       1.0000    0.25539   0.57900   0.75810   Biso      1.000     C          0.15483   
         C46       1.0000    0.57890   0.86400   0.55700   Biso      1.000     C          -0.101033           
         C47       1.0000    0.57710   0.03330   0.70540   Biso      1.000     C          -0.100272           
         C48       1.0000    0.22233   0.46540   0.60520   Biso      1.000     C          0.569168  
         C49       1.0000    0.52060   0.98490   0.53560   Biso      1.000     C          0.08067300000000001           
         C50       1.0000    0.52060   0.01510   0.03560   Biso      1.000     C          0.08067300000000001           
         C51       1.0000    0.63757   0.09430   0.23500   Biso      1.000     C          0.593605  
         C52       1.0000    0.03940   0.44290   0.14070   Biso      1.000     C          -0.15462599999999999          
         C53       1.0000    0.53940   0.05710   0.64070   Biso      1.000     C          -0.154619           
         C54       1.0000    0.07710   0.46670   0.20540   Biso      1.000     C          -0.10028300000000001          
         C55       1.0000    0.59750   0.06220   0.16380   Biso      1.000     C          -0.021471           
         C56       1.0000    0.72233   0.03460   0.10520   Biso      1.000     C          0.5691689999999999  
         C57       1.0000    0.54150   0.11190   0.99490   Biso      1.000     C          -0.15019100000000002          
         C58       1.0000    0.54150   0.88810   0.49490   Biso      1.000     C          -0.15018499999999999          
         C59       1.0000    0.57890   0.13600   0.05700   Biso      1.000     C          -0.10102699999999999          
         C60       1.0000    0.57710   0.96670   0.20540   Biso      1.000     C          -0.100272           
         C61       1.0000    0.07890   0.63600   0.05700   Biso      1.000     C          -0.101033           
         C62       1.0000    0.75539   0.92100   0.25810   Biso      1.000     C          0.154829  
         C63       1.0000    0.53940   0.94290   0.14070   Biso      1.000     C          -0.154619           
         C64       1.0000    0.25539   0.42100   0.25810   Biso      1.000     C          0.15483   
         C65       1.0000    0.72233   0.96540   0.60520   Biso      1.000     C          0.5691689999999999  
         C66       1.0000    0.22233   0.53460   0.10520   Biso      1.000     C          0.569168  
         C67       1.0000    0.04150   0.61190   0.99490   Biso      1.000     C          -0.150193           
         C68       1.0000    0.09750   0.56220   0.16380   Biso      1.000     C          -0.021458           
         C69       1.0000    0.13757   0.59430   0.23500   Biso      1.000     C          0.593604  
         C70       1.0000    0.02060   0.51510   0.03560   Biso      1.000     C          0.08068600000000001           
         C71       1.0000    0.03940   0.55710   0.64070   Biso      1.000     C          -0.154619           
         C72       1.0000    0.75539   0.07900   0.75810   Biso      1.000     C          0.154829  
         Cd1       1.0000    0.78975   0.33177   0.63340   Biso      1.000     Cd          0.784787  
         Cd2       1.0000    0.28975   0.83177   0.63340   Biso      1.000     Cd          0.784788  
         Cd3       1.0000    0.21025   0.66823   0.36660   Biso      1.000     Cd          0.784787  
         Cd4       1.0000    0.71025   0.83177   0.86660   Biso      1.000     Cd          0.784787  
         Cd5       1.0000    0.28975   0.16823   0.13340   Biso      1.000     Cd          0.784788  
         Cd6       1.0000    0.71025   0.16823   0.36660   Biso      1.000     Cd          0.784788  
         Cd7       1.0000    0.78975   0.66823   0.13340   Biso      1.000     Cd          0.784787  
         Cd8       1.0000    0.21025   0.33177   0.86660   Biso      1.000     Cd          0.784787  
         H1        1.0000    0.97370   0.62520   0.83030   Biso      1.000     H          0.10955999999999999           
         H2        1.0000    0.76720   0.89090   0.33980   Biso      1.000     H          0.09728099999999999           
         H3        1.0000    0.09210   0.29680   0.52720   Biso      1.000     H          0.114851  
         H4        1.0000    0.02630   0.62520   0.66970   Biso      1.000     H          0.10955999999999999           
         H5        1.0000    0.02990   0.33750   0.42300   Biso      1.000     H          0.109785  
         H6        1.0000    0.26720   0.39090   0.33980   Biso      1.000     H          0.09728099999999999           
         H7        1.0000    0.19420   0.63300   0.95470   Biso      1.000     H          0.36775   
         H8        1.0000    0.19170   0.69960   0.07390   Biso      1.000     H          0.36293600000000004           
         H9        1.0000    0.73280   0.39090   0.16020   Biso      1.000     H          0.09728099999999999           
         H10       1.0000    0.80580   0.63300   0.54530   Biso      1.000     H          0.36775   
         H11       1.0000    0.41140   0.08310   0.72200   Biso      1.000     H          0.1133    
         H12       1.0000    0.52990   0.83750   0.42300   Biso      1.000     H          0.10978399999999999           
         H13       1.0000    0.30830   0.19960   0.42610   Biso      1.000     H          0.36293600000000004           
         H14       1.0000    0.52630   0.12520   0.66970   Biso      1.000     H          0.10955999999999999           
         H15       1.0000    0.30580   0.13300   0.54530   Biso      1.000     H          0.36775   
         H16       1.0000    0.23280   0.89090   0.16020   Biso      1.000     H          0.09728099999999999           
         H17       1.0000    0.58860   0.08310   0.77800   Biso      1.000     H          0.1133    
         H18       1.0000    0.47370   0.12520   0.83030   Biso      1.000     H          0.10956099999999999           
         H19       1.0000    0.47010   0.83750   0.07700   Biso      1.000     H          0.109785  
         H20       1.0000    0.59210   0.79680   0.52720   Biso      1.000     H          0.114851  
         H21       1.0000    0.40790   0.79680   0.97280   Biso      1.000     H          0.114851  
         H22       1.0000    0.80830   0.69960   0.42610   Biso      1.000     H          0.36293600000000004           
         H23       1.0000    0.08860   0.58310   0.77800   Biso      1.000     H          0.1133    
         H24       1.0000    0.30830   0.80040   0.92610   Biso      1.000     H          0.36293600000000004           
         H25       1.0000    0.91140   0.58310   0.72200   Biso      1.000     H          0.113301  
         H26       1.0000    0.73280   0.60910   0.66020   Biso      1.000     H          0.09728099999999999           
         H27       1.0000    0.97370   0.37480   0.33030   Biso      1.000     H          0.10956099999999999           
         H28       1.0000    0.91140   0.41690   0.22200   Biso      1.000     H          0.1133    
         H29       1.0000    0.90790   0.70320   0.47280   Biso      1.000     H          0.114851  
         H30       1.0000    0.69170   0.80040   0.57390   Biso      1.000     H          0.36293600000000004           
         H31       1.0000    0.69420   0.86700   0.45470   Biso      1.000     H          0.36775   
         H32       1.0000    0.76720   0.10910   0.83980   Biso      1.000     H          0.09728099999999999           
         H33       1.0000    0.52630   0.87480   0.16970   Biso      1.000     H          0.10955999999999999           
         H34       1.0000    0.80580   0.36700   0.04530   Biso      1.000     H          0.36775   
         H35       1.0000    0.58860   0.91690   0.27800   Biso      1.000     H          0.1133    
         H36       1.0000    0.52990   0.16250   0.92300   Biso      1.000     H          0.10978399999999999           
         H37       1.0000    0.19170   0.30040   0.57390   Biso      1.000     H          0.36293600000000004           
         H38       1.0000    0.19420   0.36700   0.45470   Biso      1.000     H          0.36775   
         H39       1.0000    0.26720   0.60910   0.83980   Biso      1.000     H          0.09728099999999999           
         H40       1.0000    0.02630   0.37480   0.16970   Biso      1.000     H          0.10956099999999999           
         H41       1.0000    0.08860   0.41690   0.27800   Biso      1.000     H          0.1133    
         H42       1.0000    0.09210   0.70320   0.02720   Biso      1.000     H          0.114851  
         H43       1.0000    0.02990   0.66250   0.92300   Biso      1.000     H          0.109785  
         H44       1.0000    0.59210   0.20320   0.02720   Biso      1.000     H          0.114851  
         H45       1.0000    0.80830   0.30040   0.92610   Biso      1.000     H          0.36293600000000004           
         H46       1.0000    0.97010   0.66250   0.57700   Biso      1.000     H          0.109785  
         H47       1.0000    0.69170   0.19960   0.07390   Biso      1.000     H          0.36293600000000004           
         H48       1.0000    0.47010   0.16250   0.57700   Biso      1.000     H          0.10978399999999999           
         H49       1.0000    0.40790   0.20320   0.47280   Biso      1.000     H          0.114851  
         H50       1.0000    0.90790   0.29680   0.97280   Biso      1.000     H          0.114851  
         H51       1.0000    0.41140   0.91690   0.22200   Biso      1.000     H          0.113299  
         H52       1.0000    0.97010   0.33750   0.07700   Biso      1.000     H          0.109785  
         H53       1.0000    0.30580   0.86700   0.04530   Biso      1.000     H          0.36775   
         H54       1.0000    0.69420   0.13300   0.95470   Biso      1.000     H          0.36775   
         H55       1.0000    0.23280   0.10910   0.66020   Biso      1.000     H          0.09728099999999999           
         H56       1.0000    0.47370   0.87480   0.33030   Biso      1.000     H          0.10955999999999999           
         N1        1.0000    0.73620   0.06830   0.55550   Biso      1.000     N          -0.361046           
         N2        1.0000    0.20000   0.63480   0.03610   Biso      1.000     N          -0.757893           
         N3        1.0000    0.30000   0.86520   0.96390   Biso      1.000     N          -0.757893           
         N4        1.0000    0.80000   0.63480   0.46390   Biso      1.000     N          -0.757893           
         N5        1.0000    0.20000   0.36520   0.53610   Biso      1.000     N          -0.757893           
         N6        1.0000    0.23355   0.46560   0.73220   Biso      1.000     N          -0.43972700000000003          
         N7        1.0000    0.25814   0.64120   0.65700   Biso      1.000     N          -0.21858000000000002          
         N8        1.0000    0.76645   0.53440   0.26780   Biso      1.000     N          -0.43972700000000003          
         N9        1.0000    0.73620   0.93170   0.05550   Biso      1.000     N          -0.361046           
         N10       1.0000    0.23620   0.56830   0.55550   Biso      1.000     N          -0.361041           
         N11       1.0000    0.73355   0.03440   0.23220   Biso      1.000     N          -0.43972700000000003          
         N12       1.0000    0.75814   0.85880   0.15700   Biso      1.000     N          -0.218575           
         N13       1.0000    0.70000   0.13480   0.03610   Biso      1.000     N          -0.757893           
         N14       1.0000    0.74186   0.35880   0.34300   Biso      1.000     N          -0.21858000000000002          
         N15       1.0000    0.25814   0.35880   0.15700   Biso      1.000     N          -0.21858000000000002          
         N16       1.0000    0.26380   0.93170   0.44450   Biso      1.000     N          -0.361046           
         N17       1.0000    0.76380   0.56830   0.94450   Biso      1.000     N          -0.361046           
         N18       1.0000    0.80000   0.36520   0.96390   Biso      1.000     N          -0.757893           
         N19       1.0000    0.26645   0.03440   0.26780   Biso      1.000     N          -0.43972700000000003          
         N20       1.0000    0.24186   0.85880   0.34300   Biso      1.000     N          -0.218575           
         N21       1.0000    0.74186   0.64120   0.84300   Biso      1.000     N          -0.218575           
         N22       1.0000    0.30000   0.13480   0.46390   Biso      1.000     N          -0.757893           
         N23       1.0000    0.76645   0.46560   0.76780   Biso      1.000     N          -0.43972700000000003          
         N24       1.0000    0.26380   0.06830   0.94450   Biso      1.000     N          -0.361046           
         N25       1.0000    0.73355   0.96560   0.73220   Biso      1.000     N          -0.43972700000000003          
         N26       1.0000    0.76380   0.43170   0.44450   Biso      1.000     N          -0.361041           
         N27       1.0000    0.23355   0.53440   0.23220   Biso      1.000     N          -0.43972700000000003          
         N28       1.0000    0.26645   0.96560   0.76780   Biso      1.000     N          -0.43972700000000003          
         N29       1.0000    0.24186   0.14120   0.84300   Biso      1.000     N          -0.218575           
         N30       1.0000    0.75814   0.14120   0.65700   Biso      1.000     N          -0.218575           
         N31       1.0000    0.70000   0.86520   0.53610   Biso      1.000     N          -0.757893           
         N32       1.0000    0.23620   0.43170   0.05550   Biso      1.000     N          -0.361041           
         O1        1.0000    0.65334   0.19730   0.20340   Biso      1.000     O          -0.591129           
         O2        1.0000    0.15402   0.47710   0.82350   Biso      1.000     O          -0.562575           
         O3        1.0000    0.15334   0.69730   0.20340   Biso      1.000     O          -0.591128           
         O4        1.0000    0.34598   0.97710   0.67650   Biso      1.000     O          -0.562575           
         O5        1.0000    0.34666   0.19730   0.29660   Biso      1.000     O          -0.591129           
         O6        1.0000    0.65402   0.97710   0.82350   Biso      1.000     O          -0.562575           
         O7        1.0000    0.34666   0.80270   0.79660   Biso      1.000     O          -0.591129           
         O8        1.0000    0.65334   0.80270   0.70340   Biso      1.000     O          -0.591129           
         O9        1.0000    0.84598   0.52290   0.17650   Biso      1.000     O          -0.562575           
         O10       1.0000    0.15402   0.52290   0.32350   Biso      1.000     O          -0.562575           
         O11       1.0000    0.15334   0.30270   0.70340   Biso      1.000     O          -0.591129           
         O12       1.0000    0.34598   0.02290   0.17650   Biso      1.000     O          -0.5625760000000001           
         O13       1.0000    0.84666   0.30270   0.79660   Biso      1.000     O          -0.591128           
         O14       1.0000    0.84666   0.69730   0.29660   Biso      1.000     O          -0.591129           
         O15       1.0000    0.84598   0.47710   0.67650   Biso      1.000     O          -0.562575           
         O16       1.0000    0.65402   0.02290   0.32350   Biso      1.000     O          -0.562575 