
##########################################################################
#               Crystallographic Information Format file
#               Produced by PyCifRW module
#
#  This is a CIF file.  CIF has been adopted by the International
#  Union of Crystallography as the standard for data archiving and
#  transmission.
#
#  For information on this file format, follow the CIF links at
#  http://www.iucr.org
##########################################################################

data_image0

_cell_length_a                          16.538
_cell_length_b                          9.904
_cell_length_c                          21.902
_cell_angle_alpha                       90
_cell_angle_beta                        109.804
_cell_angle_gamma                       90
_symmetry_space_group_name_H-M          'P 1'
_symmetry_int_tables_number             1
loop_
  _symmetry_equiv_pos_as_xyz
         'x, y, z' 
loop_
  _atom_site_label
  _atom_site_occupancy
  _atom_site_fract_x
  _atom_site_fract_y
  _atom_site_fract_z
  _atom_site_thermal_displace_type
  _atom_site_B_iso_or_equiv
  _atom_site_type_symbol
  _atom_site_charge
         C1        1.0000    0.03380   0.79700   0.92070   Biso      1.000     C          -0.375046           
         C2        1.0000    0.97870   0.20850   0.15090   Biso      1.000     C          0.354402  
         C3        1.0000    0.17000   0.00100   0.53930   Biso      1.000     C          -0.364745           
         C4        1.0000    0.11520   0.94090   0.57350   Biso      1.000     C          0.338258  
         C5        1.0000    0.03990   0.36880   0.56650   Biso      1.000     C          0.327644  
         C6        1.0000    0.96010   0.86880   0.93350   Biso      1.000     C          0.327643  
         C7        1.0000    0.96620   0.29700   0.57930   Biso      1.000     C          -0.375046           
         C8        1.0000    0.97870   0.29150   0.65090   Biso      1.000     C          0.354398  
         C9        1.0000    0.61170   0.99300   0.74070   Biso      1.000     C          -0.31519  
         C10       1.0000    0.70650   0.99600   0.74210   Biso      1.000     C          0.322376  
         C11       1.0000    0.59920   0.77700   0.54860   Biso      1.000     C          0.349413  
         C12       1.0000    0.20250   0.60500   0.00270   Biso      1.000     C          0.338572  
         C13       1.0000    0.20250   0.89500   0.50270   Biso      1.000     C          0.33857   
         C14       1.0000    0.79750   0.39500   0.99730   Biso      1.000     C          0.33857   
         C15       1.0000    0.62240   0.58100   0.30980   Biso      1.000     C          0.259557  
         C16       1.0000    0.88480   0.44090   0.92650   Biso      1.000     C          0.338258  
         C17       1.0000    0.75650   0.77400   0.07460   Biso      1.000     C          0.347641  
         C18       1.0000    0.68390   0.67900   0.04670   Biso      1.000     C          -0.374012           
         C19       1.0000    0.17000   0.49900   0.03930   Biso      1.000     C          -0.364745           
         C20       1.0000    0.11520   0.55910   0.07350   Biso      1.000     C          0.338258  
         C21       1.0000    0.59920   0.72300   0.04860   Biso      1.000     C          0.349413  
         C22       1.0000    0.70650   0.50400   0.24210   Biso      1.000     C          0.32237   
         C23       1.0000    0.61170   0.50700   0.24070   Biso      1.000     C          -0.315191           
         C24       1.0000    0.03990   0.13120   0.06650   Biso      1.000     C          0.327647  
         C25       1.0000    0.68390   0.82100   0.54670   Biso      1.000     C          -0.374011           
         C26       1.0000    0.83000   0.50100   0.96070   Biso      1.000     C          -0.364745           
         C27       1.0000    0.02130   0.79150   0.84910   Biso      1.000     C          0.354396  
         C28       1.0000    0.96620   0.20300   0.07930   Biso      1.000     C          -0.375046           
         C29       1.0000    0.38830   0.49300   0.75930   Biso      1.000     C          -0.31519  
         C30       1.0000    0.03380   0.70300   0.42070   Biso      1.000     C          -0.375046           
         C31       1.0000    0.38830   0.00700   0.25930   Biso      1.000     C          -0.315191           
         C32       1.0000    0.96010   0.63120   0.43350   Biso      1.000     C          0.327643  
         C33       1.0000    0.88480   0.05910   0.42650   Biso      1.000     C          0.338264  
         C34       1.0000    0.83000   0.99900   0.46070   Biso      1.000     C          -0.364745           
         C35       1.0000    0.29350   0.00400   0.25790   Biso      1.000     C          0.32237   
         C36       1.0000    0.02130   0.70850   0.34910   Biso      1.000     C          0.354396  
         C37       1.0000    0.40080   0.22300   0.45140   Biso      1.000     C          0.349413  
         C38       1.0000    0.79750   0.10500   0.49730   Biso      1.000     C          0.33857   
         C39       1.0000    0.31610   0.32100   0.95330   Biso      1.000     C          -0.374011           
         C40       1.0000    0.24350   0.22600   0.92540   Biso      1.000     C          0.347641  
         C41       1.0000    0.31610   0.17900   0.45330   Biso      1.000     C          -0.374011           
         C42       1.0000    0.24350   0.27400   0.42540   Biso      1.000     C          0.347641  
         C43       1.0000    0.75650   0.72600   0.57460   Biso      1.000     C          0.347641  
         C44       1.0000    0.37760   0.08100   0.19020   Biso      1.000     C          0.259556  
         C45       1.0000    0.37760   0.41900   0.69020   Biso      1.000     C          0.259556  
         C46       1.0000    0.62240   0.91900   0.80980   Biso      1.000     C          0.259556  
         C47       1.0000    0.29350   0.49600   0.75790   Biso      1.000     C          0.322376  
         C48       1.0000    0.40080   0.27700   0.95140   Biso      1.000     C          0.349418  
         Cd1       1.0000    0.63575   0.03919   0.01339   Biso      1.000     Cd          0.727947  
         Cd2       1.0000    0.10173   0.47025   0.85320   Biso      1.000     Cd          0.655555  
         Cd3       1.0000    0.97097   0.11064   0.83565   Biso      1.000     Cd          0.61162   
         Cd4       1.0000    0.36425   0.96081   0.98661   Biso      1.000     Cd          0.727945  
         Cd5       1.0000    0.89827   0.52975   0.14680   Biso      1.000     Cd          0.655565  
         Cd6       1.0000    0.75881   0.32973   0.37995   Biso      1.000     Cd          0.733226  
         Cd7       1.0000    0.02903   0.88936   0.16435   Biso      1.000     Cd          0.611629  
         Cd8       1.0000    0.97097   0.38936   0.33565   Biso      1.000     Cd          0.61162   
         Cd9       1.0000    0.24119   0.67027   0.62005   Biso      1.000     Cd          0.733227  
         Cd10      1.0000    0.02903   0.61064   0.66435   Biso      1.000     Cd          0.611627  
         Cd11      1.0000    0.63575   0.46081   0.51339   Biso      1.000     Cd          0.727947  
         Cd12      1.0000    0.24119   0.82973   0.12005   Biso      1.000     Cd          0.733222  
         Cd13      1.0000    0.89827   0.97025   0.64680   Biso      1.000     Cd          0.655553  
         Cd14      1.0000    0.75881   0.17027   0.87995   Biso      1.000     Cd          0.733227  
         Cd15      1.0000    0.36425   0.53919   0.48661   Biso      1.000     Cd          0.727945  
         Cd16      1.0000    0.10173   0.02975   0.35320   Biso      1.000     Cd          0.655553  
         H1        1.0000    0.41140   0.58390   0.76100   Biso      1.000     H          0.175371  
         H2        1.0000    0.08710   0.84370   0.94330   Biso      1.000     H          0.149182  
         H3        1.0000    0.32170   0.33840   0.99820   Biso      1.000     H          0.166033  
         H4        1.0000    0.13730   0.43130   0.00890   Biso      1.000     H          0.162337  
         H5        1.0000    0.21880   0.45440   0.07060   Biso      1.000     H          0.179436  
         H6        1.0000    0.30150   0.40650   0.93020   Biso      1.000     H          0.150431  
         H7        1.0000    0.03850   0.70580   0.93770   Biso      1.000     H          0.145191  
         H8        1.0000    0.42480   0.44160   0.79590   Biso      1.000     H          0.176128  
         H9        1.0000    0.91290   0.15630   0.05670   Biso      1.000     H          0.149182  
         H10       1.0000    0.57520   0.55840   0.20410   Biso      1.000     H          0.176127  
         H11       1.0000    0.32170   0.16160   0.49820   Biso      1.000     H          0.166033  
         H12       1.0000    0.30150   0.09350   0.43020   Biso      1.000     H          0.15043   
         H13       1.0000    0.41140   0.91610   0.26100   Biso      1.000     H          0.175371  
         H14       1.0000    0.42480   0.05840   0.29590   Biso      1.000     H          0.176127  
         H15       1.0000    0.03850   0.79420   0.43770   Biso      1.000     H          0.145192  
         H16       1.0000    0.08710   0.65630   0.44330   Biso      1.000     H          0.149182  
         H17       1.0000    0.86270   0.93130   0.49110   Biso      1.000     H          0.162337  
         H18       1.0000    0.96150   0.29420   0.06230   Biso      1.000     H          0.145191  
         H19       1.0000    0.21880   0.04560   0.57060   Biso      1.000     H          0.179436  
         H20       1.0000    0.13730   0.06870   0.50890   Biso      1.000     H          0.162337  
         H21       1.0000    0.91290   0.34370   0.55670   Biso      1.000     H          0.149182  
         H22       1.0000    0.78120   0.95440   0.42940   Biso      1.000     H          0.179437  
         H23       1.0000    0.57520   0.94160   0.70410   Biso      1.000     H          0.176127  
         H24       1.0000    0.58860   0.41610   0.23900   Biso      1.000     H          0.175371  
         H25       1.0000    0.96150   0.20580   0.56230   Biso      1.000     H          0.145192  
         H26       1.0000    0.67830   0.66160   0.00180   Biso      1.000     H          0.166033  
         H27       1.0000    0.86270   0.56870   0.99110   Biso      1.000     H          0.162337  
         H28       1.0000    0.78120   0.54560   0.92940   Biso      1.000     H          0.179436  
         H29       1.0000    0.69850   0.59350   0.06980   Biso      1.000     H          0.15043   
         H30       1.0000    0.67830   0.83840   0.50180   Biso      1.000     H          0.166033  
         H31       1.0000    0.69850   0.90650   0.56980   Biso      1.000     H          0.150431  
         H32       1.0000    0.58860   0.08390   0.73900   Biso      1.000     H          0.175371  
         N1        1.0000    0.06220   0.81310   0.62880   Biso      1.000     N          -0.029712           
         N2        1.0000    0.12610   0.82200   0.60460   Biso      1.000     N          -0.274831           
         N3        1.0000    0.01510   0.91940   0.61270   Biso      1.000     N          -0.032739           
         N4        1.0000    0.73230   0.95100   0.69480   Biso      1.000     N          -0.256104           
         N5        1.0000    0.04460   0.00210   0.57780   Biso      1.000     N          -0.250429           
         N6        1.0000    0.76120   0.07600   0.78160   Biso      1.000     N          -0.255559           
         N7        1.0000    0.19480   0.90970   0.44070   Biso      1.000     N          -0.259137           
         N8        1.0000    0.23370   0.79490   0.42690   Biso      1.000     N          -0.068579           
         N9        1.0000    0.26490   0.72570   0.47950   Biso      1.000     N          -0.025641           
         N10       1.0000    0.24720   0.78540   0.52920   Biso      1.000     N          -0.277872           
         N11       1.0000    0.01250   0.34380   0.75030   Biso      1.000     N          -0.059724           
         N12       1.0000    0.00710   0.39100   0.69220   Biso      1.000     N          -0.240095           
         N13       1.0000    0.36860   0.03860   0.08490   Biso      1.000     N          -0.098912           
         N14       1.0000    0.96510   0.18150   0.68180   Biso      1.000     N          -0.248703           
         N15       1.0000    0.26770   0.45100   0.80520   Biso      1.000     N          -0.256103           
         N16       1.0000    0.98490   0.41940   0.88730   Biso      1.000     N          -0.032787           
         N17       1.0000    0.93780   0.31310   0.87120   Biso      1.000     N          -0.029665           
         N18       1.0000    0.87390   0.32200   0.89540   Biso      1.000     N          -0.274836           
         N19       1.0000    0.95540   0.50210   0.92220   Biso      1.000     N          -0.250425           
         N20       1.0000    0.80520   0.40970   0.05930   Biso      1.000     N          -0.259138           
         N21       1.0000    0.76630   0.29490   0.07310   Biso      1.000     N          -0.068578           
         N22       1.0000    0.73510   0.22570   0.02050   Biso      1.000     N          -0.025642           
         N23       1.0000    0.75280   0.28540   0.97080   Biso      1.000     N          -0.277873           
         N24       1.0000    0.98750   0.84380   0.74970   Biso      1.000     N          -0.05972  
         N25       1.0000    0.99290   0.89100   0.80780   Biso      1.000     N          -0.240094           
         N26       1.0000    0.01300   0.71880   0.75590   Biso      1.000     N          -0.035134           
         N27       1.0000    0.03490   0.68150   0.81820   Biso      1.000     N          -0.248671           
         N28       1.0000    0.91830   0.81280   0.96890   Biso      1.000     N          -0.283953           
         N29       1.0000    0.85480   0.90570   0.96530   Biso      1.000     N          -0.089867           
         N30       1.0000    0.23880   0.57600   0.71840   Biso      1.000     N          -0.255559           
         N31       1.0000    0.17360   0.57890   0.73930   Biso      1.000     N          -0.063813           
         N32       1.0000    0.18870   0.50350   0.78980   Biso      1.000     N          -0.036716           
         N33       1.0000    0.45320   0.35400   0.93450   Biso      1.000     N          -0.266348           
         N34       1.0000    0.08170   0.31280   0.53110   Biso      1.000     N          -0.283953           
         N35       1.0000    0.14520   0.40570   0.53470   Biso      1.000     N          -0.089867           
         N36       1.0000    0.13580   0.51080   0.56880   Biso      1.000     N          -0.072125           
         N37       1.0000    0.07000   0.49180   0.58930   Biso      1.000     N          -0.269507           
         N38       1.0000    0.36860   0.46140   0.58490   Biso      1.000     N          -0.098912           
         N39       1.0000    0.40390   0.33030   0.60180   Biso      1.000     N          -0.060631           
         N40       1.0000    0.40950   0.30420   0.66690   Biso      1.000     N          -0.293723           
         N41       1.0000    0.98700   0.21880   0.74410   Biso      1.000     N          -0.035102           
         N42       1.0000    0.35240   0.51630   0.63950   Biso      1.000     N          -0.290258           
         N43       1.0000    0.16060   0.26250   0.89460   Biso      1.000     N          -0.25631  
         N44       1.0000    0.11970   0.14670   0.88010   Biso      1.000     N          -0.040223           
         N45       1.0000    0.17020   0.04490   0.90030   Biso      1.000     N          -0.075568           
         N46       1.0000    0.24960   0.09110   0.93000   Biso      1.000     N          -0.254325           
         N47       1.0000    0.43730   0.15780   0.97170   Biso      1.000     N          -0.283843           
         N48       1.0000    0.51730   0.16880   0.96550   Biso      1.000     N          -0.119956           
         N49       1.0000    0.52500   0.29500   0.94340   Biso      1.000     N          -0.071027           
         N50       1.0000    0.82640   0.07890   0.76070   Biso      1.000     N          -0.063813           
         N51       1.0000    0.81130   0.00350   0.71020   Biso      1.000     N          -0.036716           
         N52       1.0000    0.07000   0.00820   0.08930   Biso      1.000     N          -0.269541           
         N53       1.0000    0.47500   0.79500   0.55660   Biso      1.000     N          -0.071083           
         N54       1.0000    0.80520   0.09030   0.55930   Biso      1.000     N          -0.259138           
         N55       1.0000    0.76630   0.20510   0.57310   Biso      1.000     N          -0.068579           
         N56       1.0000    0.73510   0.27430   0.52050   Biso      1.000     N          -0.025641           
         N57       1.0000    0.75280   0.21460   0.47080   Biso      1.000     N          -0.277871           
         N58       1.0000    0.98750   0.65620   0.24970   Biso      1.000     N          -0.05972  
         N59       1.0000    0.99290   0.60900   0.30780   Biso      1.000     N          -0.240092           
         N60       1.0000    0.01300   0.78120   0.25590   Biso      1.000     N          -0.035135           
         N61       1.0000    0.03490   0.81850   0.31820   Biso      1.000     N          -0.248671           
         N62       1.0000    0.91830   0.68720   0.46890   Biso      1.000     N          -0.283952           
         N63       1.0000    0.85480   0.59430   0.46530   Biso      1.000     N          -0.089867           
         N64       1.0000    0.86420   0.48920   0.43120   Biso      1.000     N          -0.072125           
         N65       1.0000    0.93000   0.50820   0.41070   Biso      1.000     N          -0.269507           
         N66       1.0000    0.63140   0.53860   0.41510   Biso      1.000     N          -0.098912           
         N67       1.0000    0.59610   0.66970   0.39820   Biso      1.000     N          -0.060631           
         N68       1.0000    0.59050   0.69580   0.33310   Biso      1.000     N          -0.293723           
         N69       1.0000    0.95540   0.99790   0.42220   Biso      1.000     N          -0.250455           
         N70       1.0000    0.64760   0.48370   0.36050   Biso      1.000     N          -0.290258           
         N71       1.0000    0.87390   0.17800   0.39540   Biso      1.000     N          -0.274867           
         N72       1.0000    0.98490   0.08060   0.38730   Biso      1.000     N          -0.032758           
         N73       1.0000    0.40390   0.16970   0.10180   Biso      1.000     N          -0.060631           
         N74       1.0000    0.40950   0.19580   0.16690   Biso      1.000     N          -0.293723           
         N75       1.0000    0.35240   0.98370   0.13950   Biso      1.000     N          -0.290258           
         N76       1.0000    0.16060   0.23750   0.39460   Biso      1.000     N          -0.256311           
         N77       1.0000    0.11970   0.35330   0.38010   Biso      1.000     N          -0.040224           
         N78       1.0000    0.17020   0.45510   0.40030   Biso      1.000     N          -0.075567           
         N79       1.0000    0.24960   0.40890   0.43000   Biso      1.000     N          -0.254324           
         N80       1.0000    0.43730   0.34220   0.47170   Biso      1.000     N          -0.283844           
         N81       1.0000    0.51730   0.33120   0.46550   Biso      1.000     N          -0.119951           
         N82       1.0000    0.52500   0.20500   0.44340   Biso      1.000     N          -0.071069           
         N83       1.0000    0.45320   0.14600   0.43450   Biso      1.000     N          -0.266305           
         N84       1.0000    0.18870   0.99650   0.28980   Biso      1.000     N          -0.036789           
         N85       1.0000    0.17360   0.92110   0.23930   Biso      1.000     N          -0.063803           
         N86       1.0000    0.23880   0.92400   0.21840   Biso      1.000     N          -0.255523           
         N87       1.0000    0.26770   0.04900   0.30520   Biso      1.000     N          -0.256072           
         N88       1.0000    0.93780   0.18690   0.37120   Biso      1.000     N          -0.029638           
         N89       1.0000    0.83940   0.73750   0.10540   Biso      1.000     N          -0.256311           
         N90       1.0000    0.88030   0.85330   0.11990   Biso      1.000     N          -0.040223           
         N91       1.0000    0.82980   0.95510   0.09970   Biso      1.000     N          -0.075567           
         N92       1.0000    0.96510   0.31850   0.18180   Biso      1.000     N          -0.248697           
         N93       1.0000    0.08170   0.18720   0.03110   Biso      1.000     N          -0.283953           
         N94       1.0000    0.14520   0.09430   0.03470   Biso      1.000     N          -0.08987  
         N95       1.0000    0.13580   0.98920   0.06880   Biso      1.000     N          -0.07209  
         N96       1.0000    0.86420   0.01080   0.93120   Biso      1.000     N          -0.072125           
         N97       1.0000    0.63140   0.96140   0.91510   Biso      1.000     N          -0.098912           
         N98       1.0000    0.59610   0.83030   0.89820   Biso      1.000     N          -0.060631           
         N99       1.0000    0.59050   0.80420   0.83310   Biso      1.000     N          -0.293723           
         N100      1.0000    0.64760   0.01630   0.86050   Biso      1.000     N          -0.290258           
         N101      1.0000    0.83940   0.76250   0.60540   Biso      1.000     N          -0.256311           
         N102      1.0000    0.88030   0.64670   0.61990   Biso      1.000     N          -0.040223           
         N103      1.0000    0.82980   0.54490   0.59970   Biso      1.000     N          -0.075567           
         N104      1.0000    0.75040   0.59110   0.57000   Biso      1.000     N          -0.254325           
         N105      1.0000    0.56270   0.65780   0.52830   Biso      1.000     N          -0.283846           
         N106      1.0000    0.48270   0.66880   0.53450   Biso      1.000     N          -0.119936           
         N107      1.0000    0.98700   0.28120   0.24410   Biso      1.000     N          -0.035152           
         N108      1.0000    0.00710   0.10900   0.19220   Biso      1.000     N          -0.240135           
         N109      1.0000    0.01250   0.15620   0.25030   Biso      1.000     N          -0.059641           
         N110      1.0000    0.24720   0.71460   0.02920   Biso      1.000     N          -0.277889           
         N111      1.0000    0.75040   0.90890   0.07000   Biso      1.000     N          -0.254325           
         N112      1.0000    0.56270   0.84220   0.02830   Biso      1.000     N          -0.283844           
         N113      1.0000    0.48270   0.83120   0.03450   Biso      1.000     N          -0.119951           
         N114      1.0000    0.47500   0.70500   0.05660   Biso      1.000     N          -0.071069           
         N115      1.0000    0.54680   0.64600   0.06550   Biso      1.000     N          -0.266305           
         N116      1.0000    0.81130   0.49650   0.21020   Biso      1.000     N          -0.03679  
         N117      1.0000    0.82640   0.42110   0.26070   Biso      1.000     N          -0.063803           
         N118      1.0000    0.54680   0.85400   0.56550   Biso      1.000     N          -0.266303           
         N119      1.0000    0.76120   0.42400   0.28160   Biso      1.000     N          -0.255523           
         N120      1.0000    0.01510   0.58060   0.11270   Biso      1.000     N          -0.032788           
         N121      1.0000    0.06220   0.68690   0.12880   Biso      1.000     N          -0.029666           
         N122      1.0000    0.12610   0.67800   0.10460   Biso      1.000     N          -0.274836           
         N123      1.0000    0.04460   0.49790   0.07780   Biso      1.000     N          -0.250424           
         N124      1.0000    0.19480   0.59030   0.94070   Biso      1.000     N          -0.259138           
         N125      1.0000    0.23370   0.70510   0.92690   Biso      1.000     N          -0.068582           
         N126      1.0000    0.26490   0.77430   0.97950   Biso      1.000     N          -0.025623           
         N127      1.0000    0.73230   0.54900   0.19480   Biso      1.000     N          -0.256072           
         N128      1.0000    0.93000   0.99180   0.91070   Biso      1.000     N          -0.269506 