
##########################################################################
#               Crystallographic Information Format file
#               Produced by PyCifRW module
#
#  This is a CIF file.  CIF has been adopted by the International
#  Union of Crystallography as the standard for data archiving and
#  transmission.
#
#  For information on this file format, follow the CIF links at
#  http://www.iucr.org
##########################################################################

data_image0

_cell_length_a                          21.751
_cell_length_b                          9.389
_cell_length_c                          17.03
_cell_angle_alpha                       90
_cell_angle_beta                        109.965
_cell_angle_gamma                       90
_symmetry_space_group_name_H-M          'P 1'
_symmetry_int_tables_number             1
loop_
  _symmetry_equiv_pos_as_xyz
         'x, y, z' 
loop_
  _atom_site_label
  _atom_site_occupancy
  _atom_site_fract_x
  _atom_site_fract_y
  _atom_site_fract_z
  _atom_site_thermal_displace_type
  _atom_site_B_iso_or_equiv
  _atom_site_type_symbol
  _atom_site_charge
         C1        1.0000    0.41209   0.86860   0.26501   Biso      1.000     C          0.640689  
         C2        1.0000    0.27898   0.31470   0.94634   Biso      1.000     C          0.097396  
         C3        1.0000    0.20703   0.67090   0.16711   Biso      1.000     C          -0.218131           
         C4        1.0000    0.14842   0.62820   0.10913   Biso      1.000     C          0.007782  
         C5        1.0000    0.26231   0.39440   0.00465   Biso      1.000     C          -0.158361           
         C6        1.0000    0.11006   0.52610   0.13015   Biso      1.000     C          -0.175804           
         C7        1.0000    0.13081   0.47173   0.21082   Biso      1.000     C          -0.030179           
         C8        1.0000    0.08791   0.36860   0.23499   Biso      1.000     C          0.640689  
         C9        1.0000    0.26611   0.16880   0.94256   Biso      1.000     C          -0.155518           
         C10       1.0000    0.12519   0.30670   0.52309   Biso      1.000     C          0.578701  
         C11       1.0000    0.41209   0.13140   0.76501   Biso      1.000     C          0.640689  
         C12       1.0000    0.36919   0.02827   0.78918   Biso      1.000     C          -0.030179           
         C13       1.0000    0.62519   0.19330   0.02309   Biso      1.000     C          0.578701  
         C14       1.0000    0.38994   0.97390   0.86985   Biso      1.000     C          -0.175805           
         C15       1.0000    0.76611   0.33120   0.44256   Biso      1.000     C          -0.155518           
         C16       1.0000    0.76231   0.10560   0.50465   Biso      1.000     C          -0.158362           
         C17       1.0000    0.77898   0.18530   0.44634   Biso      1.000     C          0.097397  
         C18       1.0000    0.35158   0.87180   0.89087   Biso      1.000     C          0.007782  
         C19       1.0000    0.29297   0.82910   0.83289   Biso      1.000     C          -0.218131           
         C20       1.0000    0.81312   0.11820   0.39154   Biso      1.000     C          -0.099899           
         C21       1.0000    0.72919   0.11550   0.24880   Biso      1.000     C          0.27143   
         C22       1.0000    0.27081   0.88450   0.75120   Biso      1.000     C          0.27143   
         C23       1.0000    0.70703   0.17090   0.16711   Biso      1.000     C          -0.218131           
         C24       1.0000    0.64842   0.12820   0.10913   Biso      1.000     C          0.007782  
         C25       1.0000    0.22919   0.61550   0.24880   Biso      1.000     C          0.27143   
         C26       1.0000    0.31041   0.98340   0.72969   Biso      1.000     C          -0.239176           
         C27       1.0000    0.18959   0.51660   0.27031   Biso      1.000     C          -0.239176           
         C28       1.0000    0.31312   0.38180   0.89154   Biso      1.000     C          -0.0999   
         C29       1.0000    0.76231   0.89440   0.00465   Biso      1.000     C          -0.158362           
         C30       1.0000    0.77898   0.81470   0.94634   Biso      1.000     C          0.097397  
         C31       1.0000    0.62519   0.80670   0.52309   Biso      1.000     C          0.578701  
         C32       1.0000    0.81312   0.88180   0.89154   Biso      1.000     C          -0.099899           
         C33       1.0000    0.68959   0.98340   0.77031   Biso      1.000     C          -0.239175           
         C34       1.0000    0.72919   0.88450   0.74880   Biso      1.000     C          0.27143   
         C35       1.0000    0.08791   0.63140   0.73499   Biso      1.000     C          0.640689  
         C36       1.0000    0.70703   0.82910   0.66711   Biso      1.000     C          -0.218132           
         C37       1.0000    0.64842   0.87180   0.60913   Biso      1.000     C          0.007782  
         C38       1.0000    0.13081   0.52827   0.71082   Biso      1.000     C          -0.030179           
         C39       1.0000    0.61006   0.97390   0.63015   Biso      1.000     C          -0.175804           
         C40       1.0000    0.63081   0.02827   0.71082   Biso      1.000     C          -0.030179           
         C41       1.0000    0.58791   0.13140   0.73499   Biso      1.000     C          0.640689  
         C42       1.0000    0.11006   0.47390   0.63015   Biso      1.000     C          -0.175805           
         C43       1.0000    0.14842   0.37180   0.60913   Biso      1.000     C          0.007782  
         C44       1.0000    0.20703   0.32910   0.66711   Biso      1.000     C          -0.218131           
         C45       1.0000    0.73389   0.16880   0.55744   Biso      1.000     C          -0.155516           
         C46       1.0000    0.22919   0.38450   0.74880   Biso      1.000     C          0.27143   
         C47       1.0000    0.12519   0.69330   0.02309   Biso      1.000     C          0.578701  
         C48       1.0000    0.18959   0.48340   0.77031   Biso      1.000     C          -0.239176           
         C49       1.0000    0.26611   0.83120   0.44256   Biso      1.000     C          -0.155518           
         C50       1.0000    0.26231   0.60560   0.50465   Biso      1.000     C          -0.158362           
         C51       1.0000    0.27898   0.68530   0.44634   Biso      1.000     C          0.097397  
         C52       1.0000    0.31312   0.61820   0.39154   Biso      1.000     C          -0.0999   
         C53       1.0000    0.61006   0.02610   0.13015   Biso      1.000     C          -0.175804           
         C54       1.0000    0.68959   0.01660   0.27031   Biso      1.000     C          -0.239175           
         C55       1.0000    0.58791   0.86860   0.23499   Biso      1.000     C          0.640689  
         C56       1.0000    0.86919   0.52827   0.78918   Biso      1.000     C          -0.030178           
         C57       1.0000    0.88994   0.52610   0.36985   Biso      1.000     C          -0.175804           
         C58       1.0000    0.86919   0.47173   0.28918   Biso      1.000     C          -0.030179           
         C59       1.0000    0.91209   0.36860   0.26501   Biso      1.000     C          0.640689  
         C60       1.0000    0.63081   0.97173   0.21082   Biso      1.000     C          -0.030179           
         C61       1.0000    0.88994   0.47390   0.86985   Biso      1.000     C          -0.175805           
         C62       1.0000    0.85158   0.37180   0.89087   Biso      1.000     C          0.007782  
         C63       1.0000    0.79297   0.32910   0.83289   Biso      1.000     C          -0.218131           
         C64       1.0000    0.77081   0.38450   0.75120   Biso      1.000     C          0.27143   
         C65       1.0000    0.81041   0.48340   0.72969   Biso      1.000     C          -0.239176           
         C66       1.0000    0.37481   0.19330   0.47691   Biso      1.000     C          0.578701  
         C67       1.0000    0.85158   0.62820   0.39087   Biso      1.000     C          0.007782  
         C68       1.0000    0.23389   0.33120   0.05744   Biso      1.000     C          -0.155516           
         C69       1.0000    0.23769   0.10560   0.99535   Biso      1.000     C          -0.158361           
         C70       1.0000    0.22102   0.18530   0.05366   Biso      1.000     C          0.097397  
         C71       1.0000    0.18688   0.11820   0.10846   Biso      1.000     C          -0.0999   
         C72       1.0000    0.72102   0.31470   0.55366   Biso      1.000     C          0.097395  
         C73       1.0000    0.31041   0.01660   0.22969   Biso      1.000     C          -0.239175           
         C74       1.0000    0.27081   0.11550   0.25120   Biso      1.000     C          0.27143   
         C75       1.0000    0.73769   0.39440   0.49535   Biso      1.000     C          -0.158359           
         C76       1.0000    0.29297   0.17090   0.33289   Biso      1.000     C          -0.218132           
         C77       1.0000    0.35158   0.12820   0.39087   Biso      1.000     C          0.007782  
         C78       1.0000    0.38994   0.02610   0.36985   Biso      1.000     C          -0.175804           
         C79       1.0000    0.36919   0.97173   0.28918   Biso      1.000     C          -0.030179           
         C80       1.0000    0.68688   0.38180   0.60846   Biso      1.000     C          -0.0999   
         C81       1.0000    0.79297   0.67090   0.33289   Biso      1.000     C          -0.218131           
         C82       1.0000    0.76611   0.66880   0.94256   Biso      1.000     C          -0.155518           
         C83       1.0000    0.77081   0.61550   0.25120   Biso      1.000     C          0.27143   
         C84       1.0000    0.18688   0.88180   0.60846   Biso      1.000     C          -0.0999   
         C85       1.0000    0.22102   0.81470   0.55366   Biso      1.000     C          0.097396  
         C86       1.0000    0.23769   0.89440   0.49535   Biso      1.000     C          -0.15836  
         C87       1.0000    0.87481   0.69330   0.47691   Biso      1.000     C          0.578701  
         C88       1.0000    0.23389   0.66880   0.55744   Biso      1.000     C          -0.155516           
         C89       1.0000    0.91209   0.63140   0.76501   Biso      1.000     C          0.640689  
         C90       1.0000    0.73769   0.60560   0.99535   Biso      1.000     C          -0.158361           
         C91       1.0000    0.72102   0.68530   0.05366   Biso      1.000     C          0.097397  
         C92       1.0000    0.37481   0.80670   0.97691   Biso      1.000     C          0.578701  
         C93       1.0000    0.73389   0.83120   0.05744   Biso      1.000     C          -0.155516           
         C94       1.0000    0.81041   0.51660   0.22969   Biso      1.000     C          -0.239176           
         C95       1.0000    0.68688   0.61820   0.10846   Biso      1.000     C          -0.099899           
         C96       1.0000    0.87481   0.30670   0.97691   Biso      1.000     C          0.578701  
         H1        1.0000    0.20240   0.51950   0.82440   Biso      1.000     H          0.133107  
         H2        1.0000    0.29760   0.01950   0.67560   Biso      1.000     H          0.133107  
         H3        1.0000    0.72970   0.49190   0.49160   Biso      1.000     H          0.121529  
         H4        1.0000    0.81240   0.78640   0.78600   Biso      1.000     H          0.265092  
         H5        1.0000    0.14080   0.85750   0.58580   Biso      1.000     H          0.114183  
         H6        1.0000    0.68760   0.28640   0.71400   Biso      1.000     H          0.265092  
         H7        1.0000    0.19020   0.98450   0.60510   Biso      1.000     H          0.102841  
         H8        1.0000    0.27030   0.49190   0.00840   Biso      1.000     H          0.121529  
         H9        1.0000    0.77680   0.61300   0.90400   Biso      1.000     H          0.103446  
         H10       1.0000    0.26750   0.76220   0.84810   Biso      1.000     H          0.133536  
         H11       1.0000    0.22970   0.99190   0.49160   Biso      1.000     H          0.121529  
         H12       1.0000    0.69020   0.48450   0.60510   Biso      1.000     H          0.102841  
         H13       1.0000    0.64080   0.35750   0.58580   Biso      1.000     H          0.114183  
         H14       1.0000    0.27680   0.11300   0.90400   Biso      1.000     H          0.103446  
         H15       1.0000    0.07120   0.50520   0.59070   Biso      1.000     H          0.135045  
         H16       1.0000    0.31240   0.28640   0.78600   Biso      1.000     H          0.265092  
         H17       1.0000    0.42880   0.00520   0.90930   Biso      1.000     H          0.135045  
         H18       1.0000    0.79760   0.51950   0.67560   Biso      1.000     H          0.133107  
         H19       1.0000    0.23250   0.26220   0.65190   Biso      1.000     H          0.133536  
         H20       1.0000    0.22320   0.61300   0.59600   Biso      1.000     H          0.103446  
         H21       1.0000    0.35920   0.35750   0.91420   Biso      1.000     H          0.114183  
         H22       1.0000    0.92880   0.50520   0.90930   Biso      1.000     H          0.135045  
         H23       1.0000    0.76750   0.26220   0.84810   Biso      1.000     H          0.133536  
         H24       1.0000    0.18760   0.78640   0.71400   Biso      1.000     H          0.265093  
         H25       1.0000    0.30980   0.48450   0.89490   Biso      1.000     H          0.102841  
         H26       1.0000    0.72320   0.11300   0.59600   Biso      1.000     H          0.103446  
         H27       1.0000    0.80980   0.98450   0.89490   Biso      1.000     H          0.102841  
         H28       1.0000    0.77030   0.00810   0.50840   Biso      1.000     H          0.121529  
         H29       1.0000    0.77030   0.99190   0.00840   Biso      1.000     H          0.121529  
         H30       1.0000    0.85920   0.14250   0.41420   Biso      1.000     H          0.114183  
         H31       1.0000    0.70240   0.98050   0.32440   Biso      1.000     H          0.133107  
         H32       1.0000    0.73250   0.23780   0.15190   Biso      1.000     H          0.133536  
         H33       1.0000    0.57120   0.99480   0.09070   Biso      1.000     H          0.135045  
         H34       1.0000    0.68760   0.71360   0.21400   Biso      1.000     H          0.265092  
         H35       1.0000    0.72320   0.88700   0.09600   Biso      1.000     H          0.103446  
         H36       1.0000    0.72970   0.50810   0.99160   Biso      1.000     H          0.121529  
         H37       1.0000    0.69020   0.51550   0.10510   Biso      1.000     H          0.102841  
         H38       1.0000    0.77680   0.38700   0.40400   Biso      1.000     H          0.103446  
         H39       1.0000    0.64080   0.64250   0.08580   Biso      1.000     H          0.114183  
         H40       1.0000    0.76750   0.73780   0.34810   Biso      1.000     H          0.133536  
         H41       1.0000    0.92880   0.49480   0.40930   Biso      1.000     H          0.135045  
         H42       1.0000    0.18760   0.21360   0.21400   Biso      1.000     H          0.265092  
         H43       1.0000    0.22320   0.38700   0.09600   Biso      1.000     H          0.103446  
         H44       1.0000    0.22970   0.00810   0.99160   Biso      1.000     H          0.121529  
         H45       1.0000    0.19020   0.01550   0.10510   Biso      1.000     H          0.102841  
         H46       1.0000    0.14080   0.14250   0.08580   Biso      1.000     H          0.114183  
         H47       1.0000    0.29760   0.98050   0.17560   Biso      1.000     H          0.133107  
         H48       1.0000    0.26750   0.23780   0.34810   Biso      1.000     H          0.133536  
         H49       1.0000    0.42880   0.99480   0.40930   Biso      1.000     H          0.135045  
         H50       1.0000    0.79760   0.48050   0.17560   Biso      1.000     H          0.133107  
         H51       1.0000    0.81240   0.21360   0.28600   Biso      1.000     H          0.265093  
         H52       1.0000    0.80980   0.01550   0.39490   Biso      1.000     H          0.102841  
         H53       1.0000    0.31240   0.71360   0.28600   Biso      1.000     H          0.265093  
         H54       1.0000    0.57120   0.00520   0.59070   Biso      1.000     H          0.135045  
         H55       1.0000    0.27680   0.88700   0.40400   Biso      1.000     H          0.103446  
         H56       1.0000    0.73250   0.76220   0.65190   Biso      1.000     H          0.133536  
         H57       1.0000    0.27030   0.50810   0.50840   Biso      1.000     H          0.121529  
         H58       1.0000    0.35920   0.64250   0.41420   Biso      1.000     H          0.114183  
         H59       1.0000    0.20240   0.48050   0.32440   Biso      1.000     H          0.133107  
         H60       1.0000    0.23250   0.73780   0.15190   Biso      1.000     H          0.133536  
         H61       1.0000    0.07120   0.49480   0.09070   Biso      1.000     H          0.135045  
         H62       1.0000    0.70240   0.01950   0.82440   Biso      1.000     H          0.133107  
         H63       1.0000    0.30980   0.51550   0.39490   Biso      1.000     H          0.102841  
         H64       1.0000    0.85920   0.85750   0.91420   Biso      1.000     H          0.114183  
         N1        1.0000    0.71148   0.34100   0.69580   Biso      1.000     N          -0.368439           
         N2        1.0000    0.28852   0.34100   0.80420   Biso      1.000     N          -0.368439           
         N3        1.0000    0.21148   0.84100   0.69580   Biso      1.000     N          -0.368439           
         N4        1.0000    0.21148   0.15900   0.19580   Biso      1.000     N          -0.368439           
         N5        1.0000    0.28852   0.65900   0.30420   Biso      1.000     N          -0.368439           
         N6        1.0000    0.78852   0.15900   0.30420   Biso      1.000     N          -0.368439           
         N7        1.0000    0.78852   0.84100   0.80420   Biso      1.000     N          -0.368439           
         N8        1.0000    0.71148   0.65900   0.19580   Biso      1.000     N          -0.368439           
         O1        1.0000    0.65715   0.71480   0.50325   Biso      1.000     O          -0.546392           
         O2        1.0000    0.84285   0.21480   0.99675   Biso      1.000     O          -0.546392           
         O3        1.0000    0.92954   0.35240   0.02605   Biso      1.000     O          -0.541374           
         O4        1.0000    0.34285   0.28520   0.49675   Biso      1.000     O          -0.546392           
         O5        1.0000    0.42954   0.14760   0.52605   Biso      1.000     O          -0.541374           
         O6        1.0000    0.39527   0.83706   0.18933   Biso      1.000     O          -0.539047           
         O7        1.0000    0.60473   0.16294   0.81067   Biso      1.000     O          -0.539047           
         O8        1.0000    0.15715   0.78520   0.00325   Biso      1.000     O          -0.546393           
         O9        1.0000    0.54048   0.18210   0.67992   Biso      1.000     O          -0.58129  
         O10       1.0000    0.57046   0.85240   0.47395   Biso      1.000     O          -0.541374           
         O11       1.0000    0.45952   0.81790   0.32008   Biso      1.000     O          -0.58129  
         O12       1.0000    0.34285   0.71480   0.99675   Biso      1.000     O          -0.546393           
         O13       1.0000    0.54048   0.81790   0.17992   Biso      1.000     O          -0.581291           
         O14       1.0000    0.45952   0.18210   0.82008   Biso      1.000     O          -0.581291           
         O15       1.0000    0.60473   0.83706   0.31067   Biso      1.000     O          -0.539046           
         O16       1.0000    0.10473   0.66294   0.81067   Biso      1.000     O          -0.539047           
         O17       1.0000    0.04048   0.68210   0.67992   Biso      1.000     O          -0.58129  
         O18       1.0000    0.07046   0.35240   0.47395   Biso      1.000     O          -0.541374           
         O19       1.0000    0.15715   0.21480   0.50325   Biso      1.000     O          -0.546392           
         O20       1.0000    0.65715   0.28520   0.00325   Biso      1.000     O          -0.546392           
         O21       1.0000    0.89527   0.66294   0.68933   Biso      1.000     O          -0.539046           
         O22       1.0000    0.42954   0.85240   0.02605   Biso      1.000     O          -0.541374           
         O23       1.0000    0.95952   0.68210   0.82008   Biso      1.000     O          -0.58129  
         O24       1.0000    0.92954   0.64760   0.52605   Biso      1.000     O          -0.541374           
         O25       1.0000    0.95952   0.31790   0.32008   Biso      1.000     O          -0.581291           
         O26       1.0000    0.89527   0.33706   0.18933   Biso      1.000     O          -0.539046           
         O27       1.0000    0.57046   0.14760   0.97395   Biso      1.000     O          -0.541374           
         O28       1.0000    0.04048   0.31790   0.17992   Biso      1.000     O          -0.58129  
         O29       1.0000    0.07046   0.64760   0.97395   Biso      1.000     O          -0.541374           
         O30       1.0000    0.39527   0.16294   0.68933   Biso      1.000     O          -0.539046           
         O31       1.0000    0.84285   0.78520   0.49675   Biso      1.000     O          -0.546392           
         O32       1.0000    0.10473   0.33706   0.31067   Biso      1.000     O          -0.539047           
         Zn1       1.0000    0.05144   0.25236   0.36925   Biso      1.000     Zn          0.948831  
         Zn2       1.0000    0.05144   0.74764   0.86925   Biso      1.000     Zn          0.948832  
         Zn3       1.0000    0.55144   0.24764   0.86925   Biso      1.000     Zn          0.948831  
         Zn4       1.0000    0.55144   0.75236   0.36925   Biso      1.000     Zn          0.948831  
         Zn5       1.0000    0.94856   0.25236   0.13075   Biso      1.000     Zn          0.948831  
         Zn6       1.0000    0.44856   0.75236   0.13075   Biso      1.000     Zn          0.948832  
         Zn7       1.0000    0.44856   0.24764   0.63075   Biso      1.000     Zn          0.948831  
         Zn8       1.0000    0.94856   0.74764   0.63075   Biso      1.000     Zn          0.948831 