
##########################################################################
#               Crystallographic Information Format file
#               Produced by PyCifRW module
#
#  This is a CIF file.  CIF has been adopted by the International
#  Union of Crystallography as the standard for data archiving and
#  transmission.
#
#  For information on this file format, follow the CIF links at
#  http://www.iucr.org
##########################################################################

data_image0

_cell_length_a                          21.169
_cell_length_b                          11.2196
_cell_length_c                          23.5169
_cell_angle_alpha                       90
_cell_angle_beta                        90
_cell_angle_gamma                       90
_symmetry_space_group_name_H-M          'P 1'
_symmetry_int_tables_number             1
loop_
  _symmetry_equiv_pos_as_xyz
         'x, y, z' 
loop_
  _atom_site_label
  _atom_site_occupancy
  _atom_site_fract_x
  _atom_site_fract_y
  _atom_site_fract_z
  _atom_site_thermal_displace_type
  _atom_site_B_iso_or_equiv
  _atom_site_type_symbol
  _atom_site_charge
         C1        1.0000    0.42630   0.75950   0.04510   Biso      1.000     C          0.605855  
         C2        1.0000    0.44090   0.58440   0.10940   Biso      1.000     C          -0.089305           
         C3        1.0000    0.03480   0.82050   0.85720   Biso      1.000     C          0.611801  
         C4        1.0000    0.09260   0.87790   0.82890   Biso      1.000     C          -0.025115           
         C5        1.0000    0.15170   0.87850   0.85470   Biso      1.000     C          -0.116711           
         C6        1.0000    0.20150   0.94620   0.82990   Biso      1.000     C          -0.019876           
         C7        1.0000    0.18920   0.99360   0.77610   Biso      1.000     C          -0.133706           
         C8        1.0000    0.13020   0.99200   0.75110   Biso      1.000     C          0.0821    
         C9        1.0000    0.08360   0.93120   0.77620   Biso      1.000     C          -0.145762           
         C10       1.0000    0.26100   0.94670   0.85950   Biso      1.000     C          0.6224    
         C11       1.0000    0.11890   0.05570   0.69650   Biso      1.000     C          0.08998   
         C12       1.0000    0.15220   0.16540   0.68590   Biso      1.000     C          -0.165629           
         C13       1.0000    0.13990   0.22910   0.63290   Biso      1.000     C          -0.09712  
         C14       1.0000    0.09130   0.18920   0.59530   Biso      1.000     C          -0.042881           
         C15       1.0000    0.07430   0.01740   0.65770   Biso      1.000     C          -0.149015           
         C16       1.0000    0.86200   0.66010   0.76050   Biso      1.000     C          0.613641  
         C17       1.0000    0.82660   0.64960   0.70810   Biso      1.000     C          -0.037127           
         C18       1.0000    0.83350   0.55810   0.67150   Biso      1.000     C          -0.09715  
         C19       1.0000    0.70350   0.04620   0.12220   Biso      1.000     C          -0.156622           
         C20       1.0000    0.75240   0.63080   0.60820   Biso      1.000     C          0.097087  
         C21       1.0000    0.85270   0.35310   0.95480   Biso      1.000     C          0.636633  
         C22       1.0000    0.83790   0.23830   0.97710   Biso      1.000     C          -0.010155           
         C23       1.0000    0.23900   0.44670   0.35950   Biso      1.000     C          0.6224    
         C24       1.0000    0.38110   0.55570   0.19650   Biso      1.000     C          0.089978  
         C25       1.0000    0.34780   0.66540   0.18590   Biso      1.000     C          -0.165628           
         C26       1.0000    0.36010   0.72910   0.13290   Biso      1.000     C          -0.09712  
         C27       1.0000    0.40870   0.68920   0.09530   Biso      1.000     C          -0.042881           
         C28       1.0000    0.42570   0.51740   0.15770   Biso      1.000     C          -0.149014           
         C29       1.0000    0.63800   0.16010   0.26050   Biso      1.000     C          0.613642  
         C30       1.0000    0.67340   0.14960   0.20810   Biso      1.000     C          -0.037127           
         C31       1.0000    0.66650   0.05810   0.17150   Biso      1.000     C          -0.097149           
         C32       1.0000    0.74760   0.13080   0.10820   Biso      1.000     C          0.097092  
         C33       1.0000    0.75470   0.21710   0.14690   Biso      1.000     C          -0.145006           
         C34       1.0000    0.72420   0.23270   0.19550   Biso      1.000     C          -0.09209  
         C35       1.0000    0.78140   0.13040   0.05220   Biso      1.000     C          0.065227  
         C36       1.0000    0.79440   0.02590   0.02590   Biso      1.000     C          -0.162425           
         C37       1.0000    0.83380   0.02300   0.97440   Biso      1.000     C          -0.024706           
         C38       1.0000    0.84830   0.13260   0.95360   Biso      1.000     C          -0.081719           
         C39       1.0000    0.80740   0.23740   0.02760   Biso      1.000     C          -0.141839           
         C40       1.0000    0.84400   0.90350   0.95030   Biso      1.000     C          0.617876  
         C41       1.0000    0.74530   0.71710   0.64690   Biso      1.000     C          -0.145005           
         C42       1.0000    0.77580   0.73270   0.69550   Biso      1.000     C          -0.09209  
         C43       1.0000    0.71860   0.63040   0.55220   Biso      1.000     C          0.06523   
         C44       1.0000    0.92570   0.98260   0.15770   Biso      1.000     C          -0.149015           
         C45       1.0000    0.13800   0.33990   0.26050   Biso      1.000     C          0.613642  
         C46       1.0000    0.17340   0.35040   0.20810   Biso      1.000     C          -0.037127           
         C47       1.0000    0.16650   0.44190   0.17150   Biso      1.000     C          -0.09715  
         C48       1.0000    0.24760   0.36920   0.10820   Biso      1.000     C          0.097087  
         C49       1.0000    0.25470   0.28290   0.14690   Biso      1.000     C          -0.145005           
         C50       1.0000    0.22420   0.26730   0.19550   Biso      1.000     C          -0.09209  
         C51       1.0000    0.28140   0.36960   0.05220   Biso      1.000     C          0.06523   
         C52       1.0000    0.29440   0.47410   0.02590   Biso      1.000     C          -0.162425           
         C53       1.0000    0.33380   0.47700   0.97440   Biso      1.000     C          -0.0247   
         C54       1.0000    0.34830   0.36740   0.95360   Biso      1.000     C          -0.081764           
         C55       1.0000    0.30740   0.26260   0.02760   Biso      1.000     C          -0.141861           
         C56       1.0000    0.33790   0.26170   0.97710   Biso      1.000     C          -0.0101   
         C57       1.0000    0.34400   0.59650   0.95030   Biso      1.000     C          0.617875  
         C58       1.0000    0.35270   0.14690   0.95480   Biso      1.000     C          0.636628  
         C59       1.0000    0.20350   0.45380   0.12220   Biso      1.000     C          -0.156617           
         C60       1.0000    0.94090   0.91560   0.10940   Biso      1.000     C          -0.089304           
         C61       1.0000    0.90870   0.81080   0.09530   Biso      1.000     C          -0.042881           
         C62       1.0000    0.86010   0.77090   0.13290   Biso      1.000     C          -0.097121           
         C63       1.0000    0.84780   0.83460   0.18590   Biso      1.000     C          -0.165628           
         C64       1.0000    0.88110   0.94430   0.19650   Biso      1.000     C          0.08998   
         C65       1.0000    0.70560   0.52590   0.52590   Biso      1.000     C          -0.162425           
         C66       1.0000    0.66620   0.52300   0.47440   Biso      1.000     C          -0.0247   
         C67       1.0000    0.65170   0.63260   0.45360   Biso      1.000     C          -0.081764           
         C68       1.0000    0.69260   0.73740   0.52760   Biso      1.000     C          -0.141861           
         C69       1.0000    0.66210   0.73830   0.47710   Biso      1.000     C          -0.0101   
         C70       1.0000    0.65600   0.40350   0.45030   Biso      1.000     C          0.617875  
         C71       1.0000    0.64730   0.85310   0.45480   Biso      1.000     C          0.636628  
         C72       1.0000    0.79650   0.54620   0.62220   Biso      1.000     C          -0.156617           
         C73       1.0000    0.41640   0.43120   0.27620   Biso      1.000     C          -0.145796           
         C74       1.0000    0.05910   0.08440   0.60940   Biso      1.000     C          -0.089305           
         C75       1.0000    0.96520   0.17950   0.35720   Biso      1.000     C          0.611801  
         C76       1.0000    0.90740   0.12210   0.32890   Biso      1.000     C          -0.025115           
         C77       1.0000    0.84830   0.12150   0.35470   Biso      1.000     C          -0.116711           
         C78       1.0000    0.79850   0.05380   0.32990   Biso      1.000     C          -0.019876           
         C79       1.0000    0.81080   0.00640   0.27610   Biso      1.000     C          -0.133706           
         C80       1.0000    0.86980   0.00800   0.25110   Biso      1.000     C          0.0821    
         C81       1.0000    0.91640   0.06880   0.27620   Biso      1.000     C          -0.145762           
         C82       1.0000    0.73900   0.05330   0.35950   Biso      1.000     C          0.6224    
         C83       1.0000    0.07370   0.25950   0.54510   Biso      1.000     C          0.605855  
         C84       1.0000    0.36980   0.49200   0.25110   Biso      1.000     C          0.082125  
         C85       1.0000    0.92630   0.74050   0.04510   Biso      1.000     C          0.605855  
         C86       1.0000    0.31080   0.49360   0.27610   Biso      1.000     C          -0.133704           
         C87       1.0000    0.61890   0.44430   0.69650   Biso      1.000     C          0.089978  
         C88       1.0000    0.65220   0.33460   0.68590   Biso      1.000     C          -0.165628           
         C89       1.0000    0.57370   0.24050   0.54510   Biso      1.000     C          0.605855  
         C90       1.0000    0.59130   0.31080   0.59530   Biso      1.000     C          -0.042881           
         C91       1.0000    0.57430   0.48260   0.65770   Biso      1.000     C          -0.149014           
         C92       1.0000    0.36200   0.83990   0.76050   Biso      1.000     C          0.613642  
         C93       1.0000    0.32660   0.85040   0.70810   Biso      1.000     C          -0.037127           
         C94       1.0000    0.33350   0.94190   0.67150   Biso      1.000     C          -0.09715  
         C95       1.0000    0.25240   0.86920   0.60820   Biso      1.000     C          0.097087  
         C96       1.0000    0.76100   0.55330   0.85950   Biso      1.000     C          0.6224    
         C97       1.0000    0.24530   0.78290   0.64690   Biso      1.000     C          -0.145005           
         C98       1.0000    0.55910   0.41560   0.60940   Biso      1.000     C          -0.089305           
         C99       1.0000    0.21860   0.86960   0.55220   Biso      1.000     C          0.065227  
         C100      1.0000    0.20560   0.97410   0.52590   Biso      1.000     C          -0.162425           
         C101      1.0000    0.29650   0.95380   0.62220   Biso      1.000     C          -0.156616           
         C102      1.0000    0.14730   0.64690   0.45480   Biso      1.000     C          0.636633  
         C103      1.0000    0.15600   0.09650   0.45030   Biso      1.000     C          0.617875  
         C104      1.0000    0.16210   0.76170   0.47710   Biso      1.000     C          -0.010155           
         C105      1.0000    0.16620   0.97700   0.47440   Biso      1.000     C          -0.024706           
         C106      1.0000    0.19260   0.76260   0.52760   Biso      1.000     C          -0.141839           
         C107      1.0000    0.27580   0.76730   0.69550   Biso      1.000     C          -0.09209  
         C108      1.0000    0.58360   0.56880   0.77620   Biso      1.000     C          -0.145796           
         C109      1.0000    0.63990   0.27090   0.63290   Biso      1.000     C          -0.097121           
         C110      1.0000    0.15170   0.86740   0.45360   Biso      1.000     C          -0.081719           
         C111      1.0000    0.63020   0.50800   0.75110   Biso      1.000     C          0.082125  
         C112      1.0000    0.53480   0.67950   0.85720   Biso      1.000     C          0.6118    
         C113      1.0000    0.59260   0.62210   0.82890   Biso      1.000     C          -0.025109           
         C114      1.0000    0.65170   0.62150   0.85470   Biso      1.000     C          -0.116711           
         C115      1.0000    0.40740   0.37790   0.32890   Biso      1.000     C          -0.025109           
         C116      1.0000    0.34830   0.37850   0.35470   Biso      1.000     C          -0.116711           
         C117      1.0000    0.46520   0.32050   0.35720   Biso      1.000     C          0.6118    
         C118      1.0000    0.68920   0.50640   0.77610   Biso      1.000     C          -0.133704           
         C119      1.0000    0.29850   0.44620   0.32990   Biso      1.000     C          -0.019875           
         C120      1.0000    0.70150   0.55380   0.82990   Biso      1.000     C          -0.019875           
         H1        1.0000    0.05380   0.94520   0.66380   Biso      1.000     H          0.122787  
         H2        1.0000    0.36800   0.36640   0.91820   Biso      1.000     H          0.118314  
         H3        1.0000    0.27760   0.52820   0.25610   Biso      1.000     H          0.114663  
         H4        1.0000    0.27820   0.54480   0.04050   Biso      1.000     H          0.120753  
         H5        1.0000    0.23470   0.20610   0.22030   Biso      1.000     H          0.127763  
         H6        1.0000    0.30310   0.19130   0.04730   Biso      1.000     H          0.116732  
         H7        1.0000    0.26530   0.70610   0.72030   Biso      1.000     H          0.127763  
         H8        1.0000    0.86400   0.50060   0.67910   Biso      1.000     H          0.11529   
         H9        1.0000    0.28530   0.22600   0.13850   Biso      1.000     H          0.102376  
         H10       1.0000    0.21470   0.72600   0.63850   Biso      1.000     H          0.102376  
         H11       1.0000    0.22180   0.04480   0.54050   Biso      1.000     H          0.120753  
         H12       1.0000    0.19800   0.51990   0.09880   Biso      1.000     H          0.112563  
         H13       1.0000    0.13600   0.49940   0.17910   Biso      1.000     H          0.11529   
         H14       1.0000    0.77760   0.97180   0.25610   Biso      1.000     H          0.114663  
         H15       1.0000    0.94620   0.05480   0.16380   Biso      1.000     H          0.122787  
         H16       1.0000    0.72240   0.47180   0.75610   Biso      1.000     H          0.114663  
         H17       1.0000    0.54470   0.57540   0.75820   Biso      1.000     H          0.125888  
         H18       1.0000    0.84130   0.16490   0.38780   Biso      1.000     H          0.132662  
         H19       1.0000    0.95530   0.07540   0.25820   Biso      1.000     H          0.125886  
         H20       1.0000    0.68100   0.30490   0.71220   Biso      1.000     H          0.130201  
         H21       1.0000    0.02660   0.05840   0.58600   Biso      1.000     H          0.122103  
         H22       1.0000    0.16370   0.29590   0.62360   Biso      1.000     H          0.122214  
         H23       1.0000    0.76530   0.79390   0.72030   Biso      1.000     H          0.127763  
         H24       1.0000    0.65870   0.66490   0.88780   Biso      1.000     H          0.132662  
         H25       1.0000    0.66370   0.20410   0.62360   Biso      1.000     H          0.122214  
         H26       1.0000    0.81900   0.80490   0.21220   Biso      1.000     H          0.130201  
         H27       1.0000    0.55380   0.55480   0.66380   Biso      1.000     H          0.122787  
         H28       1.0000    0.69690   0.80870   0.54730   Biso      1.000     H          0.116732  
         H29       1.0000    0.83630   0.70410   0.12360   Biso      1.000     H          0.122214  
         H30       1.0000    0.63200   0.63360   0.41820   Biso      1.000     H          0.118314  
         H31       1.0000    0.36400   0.99940   0.67910   Biso      1.000     H          0.11529   
         H32       1.0000    0.80200   0.48010   0.59880   Biso      1.000     H          0.112563  
         H33       1.0000    0.72180   0.45520   0.54050   Biso      1.000     H          0.120753  
         H34       1.0000    0.71470   0.77400   0.63850   Biso      1.000     H          0.102376  
         H35       1.0000    0.13200   0.86640   0.41820   Biso      1.000     H          0.118311  
         H36       1.0000    0.86800   0.13360   0.91820   Biso      1.000     H          0.118311  
         H37       1.0000    0.18100   0.19510   0.71220   Biso      1.000     H          0.130201  
         H38       1.0000    0.77820   0.95520   0.04050   Biso      1.000     H          0.120753  
         H39       1.0000    0.73470   0.29390   0.22030   Biso      1.000     H          0.127763  
         H40       1.0000    0.78530   0.27400   0.13850   Biso      1.000     H          0.102376  
         H41       1.0000    0.63600   0.00060   0.17910   Biso      1.000     H          0.11529   
         H42       1.0000    0.69800   0.98010   0.09880   Biso      1.000     H          0.112563  
         H43       1.0000    0.47340   0.55840   0.08600   Biso      1.000     H          0.122104  
         H44       1.0000    0.97340   0.94160   0.08600   Biso      1.000     H          0.122103  
         H45       1.0000    0.33630   0.79590   0.12360   Biso      1.000     H          0.122214  
         H46       1.0000    0.31900   0.69510   0.21220   Biso      1.000     H          0.130201  
         H47       1.0000    0.44620   0.44520   0.16380   Biso      1.000     H          0.122787  
         H48       1.0000    0.80310   0.30870   0.04730   Biso      1.000     H          0.11673   
         H49       1.0000    0.19690   0.69130   0.54730   Biso      1.000     H          0.11673   
         H50       1.0000    0.34130   0.33510   0.38780   Biso      1.000     H          0.132662  
         H51       1.0000    0.04470   0.92460   0.75820   Biso      1.000     H          0.125886  
         H52       1.0000    0.52660   0.44160   0.58600   Biso      1.000     H          0.122103  
         H53       1.0000    0.22240   0.02820   0.75610   Biso      1.000     H          0.114663  
         H54       1.0000    0.45530   0.42460   0.25820   Biso      1.000     H          0.125888  
         H55       1.0000    0.15870   0.83510   0.88780   Biso      1.000     H          0.132662  
         H56       1.0000    0.30200   0.01990   0.59880   Biso      1.000     H          0.112563  
         O1        1.0000    0.82530   0.81160   0.96800   Biso      1.000     O          -0.526151           
         O2        1.0000    0.64940   0.25570   0.29100   Biso      1.000     O          -0.563999           
         O3        1.0000    0.19490   0.50870   0.33830   Biso      1.000     O          -0.575547           
         O4        1.0000    0.87360   0.91180   0.89950   Biso      1.000     O          -0.602324           
         O5        1.0000    0.23060   0.37990   0.40190   Biso      1.000     O          -0.579089           
         O6        1.0000    0.45470   0.25940   0.40410   Biso      1.000     O          -0.595971           
         O7        1.0000    0.51560   0.32710   0.33290   Biso      1.000     O          -0.484185           
         O8        1.0000    0.60040   0.08470   0.27370   Biso      1.000     O          -0.566008           
         O9        1.0000    0.89170   0.34950   0.90810   Biso      1.000     O          -0.633307           
         O10       1.0000    0.76940   0.62010   0.90190   Biso      1.000     O          -0.579089           
         O11       1.0000    0.53160   0.28100   0.51510   Biso      1.000     O          -0.510249           
         O12       1.0000    0.60400   0.14510   0.53520   Biso      1.000     O          -0.610869           
         O13       1.0000    0.16130   0.55440   0.47710   Biso      1.000     O          -0.521953           
         O14       1.0000    0.41160   0.86670   0.90700   Biso      1.000     O          -1.02026  
         O15       1.0000    0.48440   0.67290   0.83290   Biso      1.000     O          -0.484186           
         O16       1.0000    0.58840   0.13330   0.40700   Biso      1.000     O          -1.02026  
         O17       1.0000    0.10830   0.65050   0.40810   Biso      1.000     O          -0.633307           
         O18       1.0000    0.12640   0.08820   0.39950   Biso      1.000     O          -0.602324           
         O19       1.0000    0.39600   0.85490   0.03520   Biso      1.000     O          -0.610869           
         O20       1.0000    0.17470   0.18840   0.46800   Biso      1.000     O          -0.52615  
         O21       1.0000    0.46840   0.71900   0.01510   Biso      1.000     O          -0.510249           
         O22       1.0000    0.35060   0.74430   0.79100   Biso      1.000     O          -0.564    
         O23       1.0000    0.39960   0.91530   0.77370   Biso      1.000     O          -0.566008           
         O24       1.0000    0.80510   0.49130   0.83830   Biso      1.000     O          -0.575547           
         O25       1.0000    0.54530   0.74060   0.90410   Biso      1.000     O          -0.595971           
         O26       1.0000    0.83870   0.44560   0.97710   Biso      1.000     O          -0.521953           
         O27       1.0000    0.89600   0.64510   0.03520   Biso      1.000     O          -0.610869           
         O28       1.0000    0.03160   0.21900   0.51510   Biso      1.000     O          -0.510249           
         O29       1.0000    0.26940   0.87990   0.90190   Biso      1.000     O          -0.579089           
         O30       1.0000    0.04530   0.75940   0.90410   Biso      1.000     O          -0.595971           
         O31       1.0000    0.98440   0.82710   0.83290   Biso      1.000     O          -0.484186           
         O32       1.0000    0.91160   0.63330   0.90700   Biso      1.000     O          -1.02026  
         O33       1.0000    0.85060   0.75570   0.79100   Biso      1.000     O          -0.563999           
         O34       1.0000    0.67470   0.31160   0.46800   Biso      1.000     O          -0.526151           
         O35       1.0000    0.62640   0.41180   0.39950   Biso      1.000     O          -0.602323           
         O36       1.0000    0.60830   0.84950   0.40810   Biso      1.000     O          -0.633305           
         O37       1.0000    0.66130   0.94560   0.47710   Biso      1.000     O          -0.521952           
         O38       1.0000    0.10400   0.35490   0.53520   Biso      1.000     O          -0.610869           
         O39       1.0000    0.30510   0.00870   0.83830   Biso      1.000     O          -0.575547           
         O40       1.0000    0.89960   0.58470   0.77370   Biso      1.000     O          -0.566008           
         O41       1.0000    0.01560   0.17290   0.33290   Biso      1.000     O          -0.484186           
         O42       1.0000    0.95470   0.24060   0.40410   Biso      1.000     O          -0.595971           
         O43       1.0000    0.73060   0.12010   0.40190   Biso      1.000     O          -0.579089           
         O44       1.0000    0.69490   0.99130   0.33830   Biso      1.000     O          -0.575547           
         O45       1.0000    0.10040   0.41530   0.27370   Biso      1.000     O          -0.566008           
         O46       1.0000    0.14940   0.24430   0.29100   Biso      1.000     O          -0.563999           
         O47       1.0000    0.32530   0.68840   0.96800   Biso      1.000     O          -0.526151           
         O48       1.0000    0.37360   0.58820   0.89950   Biso      1.000     O          -0.602323           
         O49       1.0000    0.39170   0.15050   0.90810   Biso      1.000     O          -0.633305           
         O50       1.0000    0.33870   0.05440   0.97710   Biso      1.000     O          -0.521952           
         O51       1.0000    0.96840   0.78100   0.01510   Biso      1.000     O          -0.510249           
         O52       1.0000    0.08840   0.36670   0.40700   Biso      1.000     O          -1.02026  
         Zn1       1.0000    0.39919   0.00592   0.85717   Biso      1.000     Zn          1.012834  
         Zn2       1.0000    0.33959   0.87569   0.96216   Biso      1.000     Zn          1.070882  
         Zn3       1.0000    0.48685   0.83146   0.94945   Biso      1.000     Zn          0.977223  
         Zn4       1.0000    0.66041   0.12431   0.46216   Biso      1.000     Zn          1.070882  
         Zn5       1.0000    0.89919   0.49408   0.85717   Biso      1.000     Zn          1.012834  
         Zn6       1.0000    0.83959   0.62431   0.96216   Biso      1.000     Zn          1.070882  
         Zn7       1.0000    0.51315   0.16854   0.44945   Biso      1.000     Zn          0.977223  
         Zn8       1.0000    0.90171   0.77063   0.85858   Biso      1.000     Zn          0.936022  
         Zn9       1.0000    0.59829   0.27063   0.35858   Biso      1.000     Zn          0.936021  
         Zn10      1.0000    0.60081   0.99408   0.35717   Biso      1.000     Zn          1.012834  
         Zn11      1.0000    0.09829   0.22937   0.35858   Biso      1.000     Zn          0.936022  
         Zn12      1.0000    0.10081   0.50592   0.35717   Biso      1.000     Zn          1.012834  
         Zn13      1.0000    0.16041   0.37569   0.46216   Biso      1.000     Zn          1.070882  
         Zn14      1.0000    0.01315   0.33146   0.44945   Biso      1.000     Zn          0.977223  
         Zn15      1.0000    0.98685   0.66854   0.94945   Biso      1.000     Zn          0.977223  
         Zn16      1.0000    0.40171   0.72937   0.85858   Biso      1.000     Zn          0.936022 