
##########################################################################
#               Crystallographic Information Format file
#               Produced by PyCifRW module
#
#  This is a CIF file.  CIF has been adopted by the International
#  Union of Crystallography as the standard for data archiving and
#  transmission.
#
#  For information on this file format, follow the CIF links at
#  http://www.iucr.org
##########################################################################

data_image0

_cell_length_a                          10.8237
_cell_length_b                          12.1862
_cell_length_c                          12.2493
_cell_angle_alpha                       94.301
_cell_angle_beta                        106.53
_cell_angle_gamma                       101.281
_symmetry_space_group_name_H-M          'P 1'
_symmetry_int_tables_number             1
loop_
  _symmetry_equiv_pos_as_xyz
         'x, y, z' 
loop_
  _atom_site_label
  _atom_site_occupancy
  _atom_site_fract_x
  _atom_site_fract_y
  _atom_site_fract_z
  _atom_site_thermal_displace_type
  _atom_site_B_iso_or_equiv
  _atom_site_type_symbol
  _atom_site_charge
         C1        1.0000    0.53020   0.78660   0.27260   Biso      1.000     C          0.057246000000000005          
         C2        1.0000    0.01620   0.37410   0.83560   Biso      1.000     C          -0.11256600000000001          
         C3        1.0000    0.00620   0.43560   0.13500   Biso      1.000     C          -0.181446           
         C4        1.0000    0.99380   0.56440   0.86500   Biso      1.000     C          -0.181445           
         C5        1.0000    0.57340   0.89830   0.25320   Biso      1.000     C          -0.090784           
         C6        1.0000    0.99490   0.55310   0.98160   Biso      1.000     C          0.081972  
         C7        1.0000    0.98500   0.63990   0.05400   Biso      1.000     C          -0.15286  
         C8        1.0000    0.98380   0.62590   0.16440   Biso      1.000     C          -0.11256300000000001          
         C9        1.0000    0.85020   0.19440   0.52970   Biso      1.000     C          0.580645  
         C10       1.0000    0.72980   0.11740   0.53520   Biso      1.000     C          -0.005194           
         C11       1.0000    0.60850   0.11690   0.46280   Biso      1.000     C          -0.17363299999999998          
         C12       1.0000    0.99380   0.52140   0.20230   Biso      1.000     C          -0.026692           
         C13       1.0000    0.49400   0.04060   0.46160   Biso      1.000     C          0.079266  
         C14       1.0000    0.00620   0.47860   0.79770   Biso      1.000     C          -0.026692           
         C15       1.0000    0.73940   0.03980   0.61290   Biso      1.000     C          -0.10981800000000001          
         C16       1.0000    0.63190   0.96490   0.61710   Biso      1.000     C          -0.145102           
         C17       1.0000    0.58940   0.62110   0.35630   Biso      1.000     C          0.123919  
         C18       1.0000    0.16770   0.08980   0.04020   Biso      1.000     C          -0.150001           
         C19       1.0000    0.05210   0.01080   0.97830   Biso      1.000     C          0.083959  
         C20       1.0000    0.45640   0.56250   0.31090   Biso      1.000     C          0.053271000000000006          
         C21       1.0000    0.36810   0.03510   0.38290   Biso      1.000     C          -0.145123           
         C22       1.0000    0.03640   0.95220   0.86740   Biso      1.000     C          -0.161828           
         C23       1.0000    0.36190   0.61900   0.24860   Biso      1.000     C          -0.12598099999999998          
         C24       1.0000    0.82100   0.85470   0.85550   Biso      1.000     C          -0.11419800000000001          
         C25       1.0000    0.92430   0.87680   0.80900   Biso      1.000     C          -0.003761           
         C26       1.0000    0.42220   0.45010   0.33090   Biso      1.000     C          -0.07850900000000001          
         C27       1.0000    0.64850   0.46610   0.43490   Biso      1.000     C          0.132113  
         C28       1.0000    0.99030   0.50530   0.32400   Biso      1.000     C          0.690329  
         C29       1.0000    0.00970   0.49470   0.67600   Biso      1.000     C          0.690329  
         C30       1.0000    0.62780   0.73620   0.33650   Biso      1.000     C          0.133713  
         C31       1.0000    0.83230   0.91020   0.95980   Biso      1.000     C          -0.14999300000000002          
         C32       1.0000    0.35150   0.53390   0.56510   Biso      1.000     C          0.132115  
         C33       1.0000    0.39700   0.72680   0.23210   Biso      1.000     C          -0.132437           
         C34       1.0000    0.48070   0.59670   0.60820   Biso      1.000     C          -0.13063  
         C35       1.0000    0.26060   0.96020   0.38710   Biso      1.000     C          -0.109797           
         C36       1.0000    0.57780   0.54990   0.66910   Biso      1.000     C          -0.078498           
         C37       1.0000    0.50600   0.95940   0.53840   Biso      1.000     C          0.079263  
         C38       1.0000    0.54360   0.43750   0.68910   Biso      1.000     C          0.053267999999999996          
         C39       1.0000    0.41060   0.37890   0.64370   Biso      1.000     C          0.12392   
         C40       1.0000    0.37220   0.26380   0.66350   Biso      1.000     C          0.133712  
         C41       1.0000    0.20860   0.10650   0.64360   Biso      1.000     C          0.134364  
         C42       1.0000    0.70220   0.94950   0.29360   Biso      1.000     C          -0.12459300000000001          
         C43       1.0000    0.29780   0.05050   0.70640   Biso      1.000     C          -0.124617           
         C44       1.0000    0.39150   0.88310   0.53720   Biso      1.000     C          -0.173644           
         C45       1.0000    0.42660   0.10170   0.74680   Biso      1.000     C          -0.090761           
         C46       1.0000    0.27020   0.88260   0.46480   Biso      1.000     C          -0.005185           
         C47       1.0000    0.46980   0.21340   0.72740   Biso      1.000     C          0.057246000000000005          
         C48       1.0000    0.60300   0.27320   0.76790   Biso      1.000     C          -0.13246  
         C49       1.0000    0.14980   0.80560   0.47030   Biso      1.000     C          0.5806439999999999  
         C50       1.0000    0.63810   0.38100   0.75140   Biso      1.000     C          -0.125958           
         C51       1.0000    0.79140   0.89350   0.35640   Biso      1.000     C          0.13436199999999998           
         C52       1.0000    0.08770   0.18110   0.30580   Biso      1.000     C          0.576272  
         C53       1.0000    0.07570   0.12320   0.19100   Biso      1.000     C          -0.003785           
         C54       1.0000    0.17900   0.14530   0.14450   Biso      1.000     C          -0.11418699999999998          
         C55       1.0000    0.01500   0.36010   0.94600   Biso      1.000     C          -0.152863           
         C56       1.0000    0.96360   0.04780   0.13260   Biso      1.000     C          -0.161804           
         C57       1.0000    0.00510   0.44690   0.01840   Biso      1.000     C          0.081979  
         C58       1.0000    0.94790   0.98920   0.02170   Biso      1.000     C          0.083958  
         C59       1.0000    0.91230   0.81890   0.69420   Biso      1.000     C          0.57627   
         C60       1.0000    0.51930   0.40330   0.39180   Biso      1.000     C          -0.130618           
         Dy1       1.0000    0.08325   0.30978   0.49819   Biso      1.000     Dy          1.9103729999999999  
         Dy2       1.0000    0.91675   0.69022   0.50181   Biso      1.000     Dy          1.9103729999999999  
         H1        1.0000    0.74370   0.80180   0.81550   Biso      1.000     H          0.11464200000000001           
         H2        1.0000    0.10520   0.96680   0.83540   Biso      1.000     H          0.12244200000000001           
         H3        1.0000    0.23790   0.10480   0.00980   Biso      1.000     H          0.11770599999999999           
         H4        1.0000    0.01560   0.36810   0.16350   Biso      1.000     H          0.124258  
         H5        1.0000    0.02090   0.29080   0.97170   Biso      1.000     H          0.113945  
         H6        1.0000    0.33250   0.76250   0.19330   Biso      1.000     H          0.12015   
         H7        1.0000    0.39830   0.83010   0.58820   Biso      1.000     H          0.11833099999999999           
         H8        1.0000    0.17820   0.96040   0.33680   Biso      1.000     H          0.11236600000000001           
         H9        1.0000    0.27370   0.58050   0.21870   Biso      1.000     H          0.11948099999999999           
         H10       1.0000    0.97640   0.68500   0.21300   Biso      1.000     H          0.12094200000000001           
         H11       1.0000    0.35930   0.08380   0.32770   Biso      1.000     H          0.10943399999999999           
         H12       1.0000    0.73130   0.02250   0.27940   Biso      1.000     H          0.130191  
         H13       1.0000    0.28730   0.56820   0.52300   Biso      1.000     H          0.095523  
         H14       1.0000    0.50100   0.67130   0.59520   Biso      1.000     H          0.123544  
         H15       1.0000    0.66490   0.59120   0.69710   Biso      1.000     H          0.130029  
         H16       1.0000    0.12000   0.06920   0.61510   Biso      1.000     H          0.101077  
         H17       1.0000    0.26870   0.97750   0.72060   Biso      1.000     H          0.130192  
         H18       1.0000    0.48740   0.06360   0.78760   Biso      1.000     H          0.11940899999999999           
         H19       1.0000    0.66750   0.23750   0.80670   Biso      1.000     H          0.120151  
         H20       1.0000    0.72630   0.41950   0.78130   Biso      1.000     H          0.11947999999999999           
         H21       1.0000    0.25630   0.19820   0.18450   Biso      1.000     H          0.114641  
         H22       1.0000    0.89480   0.03320   0.16460   Biso      1.000     H          0.12244000000000001           
         H23       1.0000    0.76210   0.89520   0.99020   Biso      1.000     H          0.11770499999999999           
         H24       1.0000    0.02360   0.31500   0.78700   Biso      1.000     H          0.12094200000000001           
         H25       1.0000    0.98440   0.63190   0.83650   Biso      1.000     H          0.124258  
         H26       1.0000    0.51260   0.93640   0.21240   Biso      1.000     H          0.11940999999999999           
         H27       1.0000    0.97910   0.70920   0.02830   Biso      1.000     H          0.113945  
         H28       1.0000    0.82180   0.03960   0.66320   Biso      1.000     H          0.11236700000000001           
         H29       1.0000    0.64070   0.91620   0.67230   Biso      1.000     H          0.10943299999999999           
         H30       1.0000    0.71270   0.43180   0.47700   Biso      1.000     H          0.095523  
         H31       1.0000    0.49900   0.32870   0.40480   Biso      1.000     H          0.123543  
         H32       1.0000    0.33510   0.40880   0.30290   Biso      1.000     H          0.13003   
         H33       1.0000    0.88000   0.93080   0.38490   Biso      1.000     H          0.101078  
         H34       1.0000    0.60170   0.16990   0.41180   Biso      1.000     H          0.11833099999999999           
         N1        1.0000    0.24360   0.21150   0.62210   Biso      1.000     N          -0.366865           
         N2        1.0000    0.31500   0.42770   0.58090   Biso      1.000     N          -0.361146           
         N3        1.0000    0.68500   0.57230   0.41910   Biso      1.000     N          -0.361146           
         N4        1.0000    0.75640   0.78850   0.37790   Biso      1.000     N          -0.366865           
         O1        1.0000    0.00790   0.83850   0.65360   Biso      1.000     O          -0.63364  
         O2        1.0000    0.03880   0.81760   0.41320   Biso      1.000     O          -0.6363949999999999           
         O3        1.0000    0.93110   0.56530   0.36520   Biso      1.000     O          -0.6718770000000001           
         O4        1.0000    0.15740   0.73140   0.53860   Biso      1.000     O          -0.631563           
         O5        1.0000    0.95440   0.56610   0.62790   Biso      1.000     O          -0.6687029999999999           
         O6        1.0000    0.19210   0.25170   0.36290   Biso      1.000     O          -0.6407079999999999           
         O7        1.0000    0.99210   0.16150   0.34640   Biso      1.000     O          -0.633641           
         O8        1.0000    0.84260   0.26860   0.46140   Biso      1.000     O          -0.631563           
         O9        1.0000    0.96120   0.18240   0.58680   Biso      1.000     O          -0.6363949999999999           
         O10       1.0000    0.06890   0.43470   0.63480   Biso      1.000     O          -0.6718770000000001           
         O11       1.0000    0.80790   0.74830   0.63710   Biso      1.000     O          -0.6407069999999999           
         O12       1.0000    0.04560   0.43390   0.37210   Biso      1.000     O          -0.6687029999999999 