
##########################################################################
#               Crystallographic Information Format file
#               Produced by PyCifRW module
#
#  This is a CIF file.  CIF has been adopted by the International
#  Union of Crystallography as the standard for data archiving and
#  transmission.
#
#  For information on this file format, follow the CIF links at
#  http://www.iucr.org
##########################################################################

data_image0

_cell_length_a                          9.149
_cell_length_b                          11.202
_cell_length_c                          14.628
_cell_angle_alpha                       73.526
_cell_angle_beta                        88.045
_cell_angle_gamma                       71.284
_symmetry_space_group_name_H-M          'P 1'
_symmetry_int_tables_number             1
loop_
  _symmetry_equiv_pos_as_xyz
         'x, y, z' 
loop_
  _atom_site_label
  _atom_site_occupancy
  _atom_site_fract_x
  _atom_site_fract_y
  _atom_site_fract_z
  _atom_site_thermal_displace_type
  _atom_site_B_iso_or_equiv
  _atom_site_type_symbol
  _atom_site_charge
         Zn1       1.0000    0.85797   0.17627   0.98563   Biso      1.000     Zn          1.060135  
         Zn2       1.0000    0.26586   0.24649   0.75645   Biso      1.000     Zn          0.946046  
         Zn3       1.0000    0.50401   0.48752   0.15542   Biso      1.000     Zn          0.928272  
         Zn4       1.0000    0.14280   0.82161   0.01351   Biso      1.000     Zn          1.058541  
         Zn5       1.0000    0.73359   0.75329   0.24332   Biso      1.000     Zn          0.946436  
         Zn6       1.0000    0.49457   0.51237   0.84404   Biso      1.000     Zn          0.926166  
         P1        1.0000    0.75847   0.48784   0.99544   Biso      1.000     P          0.960502  
         P2        1.0000    0.06719   0.07948   0.82949   Biso      1.000     P          1.208814  
         P3        1.0000    0.59343   0.22284   0.83243   Biso      1.000     P          1.211017  
         P4        1.0000    0.23981   0.51337   0.00205   Biso      1.000     P          0.938285  
         P5        1.0000    0.93359   0.92001   0.17013   Biso      1.000     P          1.21123   
         P6        1.0000    0.40659   0.77662   0.16759   Biso      1.000     P          1.209698  
         H1        1.0000    0.94258   0.11874   0.76184   Biso      1.000     H          -0.109388           
         H2        1.0000    0.66160   0.15463   0.76600   Biso      1.000     H          -0.114501           
         H3        1.0000    0.61380   0.82091   0.03490   Biso      1.000     H          0.283088  
         H4        1.0000    0.87556   0.75838   0.99986   Biso      1.000     H          0.102595  
         H5        1.0000    0.94628   0.79151   0.82866   Biso      1.000     H          0.138484  
         H6        1.0000    0.40561   0.91507   0.92227   Biso      1.000     H          0.109599  
         H7        1.0000    0.45323   0.95120   0.74649   Biso      1.000     H          0.128937  
         H8        1.0000    0.26834   0.48324   0.58107   Biso      1.000     H          0.091603  
         H9        1.0000    0.09811   0.72159   0.53554   Biso      1.000     H          0.12918   
         H10       1.0000    0.01448   0.38877   0.81740   Biso      1.000     H          0.095845  
         H11       1.0000    0.82796   0.61414   0.77844   Biso      1.000     H          0.127592  
         H12       1.0000    0.75780   0.22331   0.20569   Biso      1.000     H          0.099829  
         H13       1.0000    0.84784   0.02877   0.35432   Biso      1.000     H          0.126119  
         H14       1.0000    0.40438   0.42562   0.34606   Biso      1.000     H          0.094223  
         H15       1.0000    0.47796   0.23454   0.50009   Biso      1.000     H          0.115015  
         H16       1.0000    0.05771   0.88096   0.23807   Biso      1.000     H          -0.108953           
         H17       1.0000    0.33812   0.84536   0.23372   Biso      1.000     H          -0.114066           
         H18       1.0000    0.38608   0.17933   0.96504   Biso      1.000     H          0.28368   
         H19       1.0000    0.12428   0.24173   0.00008   Biso      1.000     H          0.104854  
         H20       1.0000    0.05375   0.20846   0.17140   Biso      1.000     H          0.137474  
         H21       1.0000    0.59429   0.08492   0.07766   Biso      1.000     H          0.109421  
         H22       1.0000    0.54671   0.04886   0.25347   Biso      1.000     H          0.12878   
         H23       1.0000    0.73161   0.51672   0.41898   Biso      1.000     H          0.091647  
         H24       1.0000    0.90193   0.27841   0.46450   Biso      1.000     H          0.129497  
         H25       1.0000    0.98543   0.61122   0.18264   Biso      1.000     H          0.094775  
         H26       1.0000    0.17186   0.38610   0.22144   Biso      1.000     H          0.128168  
         H27       1.0000    0.24219   0.77655   0.79428   Biso      1.000     H          0.101269  
         H28       1.0000    0.15218   0.97135   0.64563   Biso      1.000     H          0.126243  
         H29       1.0000    0.59553   0.57439   0.65386   Biso      1.000     H          0.094041  
         H30       1.0000    0.52213   0.76556   0.49983   Biso      1.000     H          0.115102  
         O1        1.0000    0.65878   0.55591   0.90014   Biso      1.000     O          -0.689473           
         O2        1.0000    0.67297   0.52804   0.08028   Biso      1.000     O          -0.691185           
         O3        1.0000    0.02351   0.17234   0.89325   Biso      1.000     O          -0.770088           
         O4        1.0000    0.09351   0.93547   0.88163   Biso      1.000     O          -0.726303           
         O5        1.0000    0.20822   0.09656   0.77221   Biso      1.000     O          -0.706413           
         O6        1.0000    0.68415   0.15266   0.92929   Biso      1.000     O          -0.74688  
         O7        1.0000    0.43050   0.20717   0.84598   Biso      1.000     O          -0.720138           
         O8        1.0000    0.58731   0.36473   0.78755   Biso      1.000     O          -0.73278  
         O9        1.0000    0.83233   0.33847   0.01656   Biso      1.000     O          -0.711777           
         O10       1.0000    0.33601   0.45120   0.09880   Biso      1.000     O          -0.692273           
         O11       1.0000    0.33033   0.46584   0.92080   Biso      1.000     O          -0.690953           
         O12       1.0000    0.17066   0.66431   0.97497   Biso      1.000     O          -0.710603           
         O13       1.0000    0.97803   0.82715   0.10642   Biso      1.000     O          -0.77072  
         O14       1.0000    0.90668   0.06435   0.11795   Biso      1.000     O          -0.727436           
         O15       1.0000    0.79253   0.90276   0.22726   Biso      1.000     O          -0.70721  
         O16       1.0000    0.31579   0.84600   0.07081   Biso      1.000     O          -0.746423           
         O17       1.0000    0.56935   0.79285   0.15365   Biso      1.000     O          -0.720677           
         O18       1.0000    0.41407   0.63450   0.21300   Biso      1.000     O          -0.733245           
         N1        1.0000    0.63971   0.83591   0.96272   Biso      1.000     N          -0.131858           
         N2        1.0000    0.14615   0.42805   0.70020   Biso      1.000     N          -0.305593           
         N3        1.0000    0.58001   0.33179   0.27200   Biso      1.000     N          -0.275086           
         N4        1.0000    0.65203   0.01718   0.60990   Biso      1.000     N          -0.415815           
         N5        1.0000    0.83615   0.89647   0.52807   Biso      1.000     N          -0.397869           
         N6        1.0000    0.36020   0.16400   0.03724   Biso      1.000     N          -0.131028           
         N7        1.0000    0.85365   0.57194   0.29979   Biso      1.000     N          -0.305945           
         N8        1.0000    0.41956   0.66820   0.72771   Biso      1.000     N          -0.274809           
         N9        1.0000    0.34795   0.98288   0.39003   Biso      1.000     N          -0.416197           
         N10       1.0000    0.16382   0.10354   0.47189   Biso      1.000     N          -0.397894           
         C1        1.0000    0.78970   0.79798   0.93999   Biso      1.000     C          0.085675  
         C2        1.0000    0.82468   0.81656   0.84525   Biso      1.000     C          -0.163975           
         C3        1.0000    0.52048   0.88991   0.89508   Biso      1.000     C          0.111246  
         C4        1.0000    0.55059   0.90879   0.79983   Biso      1.000     C          -0.157886           
         C5        1.0000    0.70444   0.87211   0.77262   Biso      1.000     C          0.125472  
         C6        1.0000    0.17007   0.51955   0.62205   Biso      1.000     C          0.0877    
         C7        1.0000    0.07558   0.64894   0.59737   Biso      1.000     C          -0.162203           
         C8        1.0000    0.02638   0.46659   0.75533   Biso      1.000     C          0.091942  
         C9        1.0000    0.92524   0.59361   0.73334   Biso      1.000     C          -0.171856           
         C10       1.0000    0.94820   0.68981   0.65239   Biso      1.000     C          0.124515  
         C11       1.0000    0.70164   0.22259   0.27335   Biso      1.000     C          0.086256  
         C12       1.0000    0.75023   0.11599   0.35456   Biso      1.000     C          -0.148571           
         C13       1.0000    0.50173   0.33488   0.35289   Biso      1.000     C          0.074658  
         C14       1.0000    0.54286   0.23167   0.43615   Biso      1.000     C          -0.163026           
         C15       1.0000    0.67118   0.11873   0.43881   Biso      1.000     C          0.091414  
         C16       1.0000    0.73379   0.89912   0.67186   Biso      1.000     C          0.077684  
         C17       1.0000    0.84624   0.82349   0.62190   Biso      1.000     C          0.051968  
         C18       1.0000    0.71964   0.01045   0.52503   Biso      1.000     C          0.259878  
         C19       1.0000    0.21021   0.20200   0.05993   Biso      1.000     C          0.087272  
         C20       1.0000    0.17530   0.18347   0.15469   Biso      1.000     C          -0.163601           
         C21       1.0000    0.47944   0.11008   0.10487   Biso      1.000     C          0.110238  
         C22       1.0000    0.44936   0.09127   0.20013   Biso      1.000     C          -0.159397           
         C23       1.0000    0.29551   0.12797   0.22735   Biso      1.000     C          0.125252  
         C24       1.0000    0.82985   0.48043   0.37798   Biso      1.000     C          0.088365  
         C25       1.0000    0.92441   0.35108   0.40265   Biso      1.000     C          -0.162564           
         C26       1.0000    0.97347   0.53341   0.24469   Biso      1.000     C          0.092208  
         C27       1.0000    0.07468   0.40645   0.26664   Biso      1.000     C          -0.172017           
         C28       1.0000    0.05175   0.31022   0.34760   Biso      1.000     C          0.124044  
         C29       1.0000    0.29813   0.77746   0.72653   Biso      1.000     C          0.087148  
         C30       1.0000    0.24973   0.88412   0.64535   Biso      1.000     C          -0.148655           
         C31       1.0000    0.49812   0.66513   0.64693   Biso      1.000     C          0.075201  
         C32       1.0000    0.45716   0.76842   0.56373   Biso      1.000     C          -0.164158           
         C33       1.0000    0.32882   0.88132   0.56113   Biso      1.000     C          0.091561  
         C34       1.0000    0.26616   0.10095   0.32809   Biso      1.000     C          0.077341  
         C35       1.0000    0.15370   0.17653   0.37807   Biso      1.000     C          0.051798  
         C36       1.0000    0.28035   0.98959   0.47490   Biso      1.000     C          0.260455 