
##########################################################################
#               Crystallographic Information Format file
#               Produced by PyCifRW module
#
#  This is a CIF file.  CIF has been adopted by the International
#  Union of Crystallography as the standard for data archiving and
#  transmission.
#
#  For information on this file format, follow the CIF links at
#  http://www.iucr.org
##########################################################################

data_image0

_cell_length_a                          13.6831
_cell_length_b                          13.6831
_cell_length_c                          16.1955
_cell_angle_alpha                       66.5815
_cell_angle_beta                        66.5815
_cell_angle_gamma                       74.9456
_symmetry_space_group_name_H-M          'P 1'
_symmetry_int_tables_number             1
loop_
  _symmetry_equiv_pos_as_xyz
         'x, y, z' 
loop_
  _atom_site_label
  _atom_site_occupancy
  _atom_site_fract_x
  _atom_site_fract_y
  _atom_site_fract_z
  _atom_site_thermal_displace_type
  _atom_site_B_iso_or_equiv
  _atom_site_type_symbol
  _atom_site_charge
         C1        1.0000    0.81080   0.44900   0.62470   Biso      1.000     C          0.6909270000000001  
         C2        1.0000    0.33350   0.14510   0.27610   Biso      1.000     C          -0.097345           
         C3        1.0000    0.42840   0.09620   0.22680   Biso      1.000     C          -0.021862           
         C4        1.0000    0.51680   0.07160   0.25570   Biso      1.000     C          -0.132575           
         C5        1.0000    0.50680   0.09500   0.33350   Biso      1.000     C          0.07891799999999999           
         C6        1.0000    0.41260   0.14240   0.38480   Biso      1.000     C          -0.12352300000000001          
         C7        1.0000    0.22380   0.22220   0.40930   Biso      1.000     C          0.587773  
         C8        1.0000    0.43650   0.07010   0.14210   Biso      1.000     C          0.688894  
         C9        1.0000    0.30110   0.57470   0.30960   Biso      1.000     C          -0.00798  
         C10       1.0000    0.38320   0.49120   0.30840   Biso      1.000     C          -0.13466  
         C11       1.0000    0.55100   0.18920   0.87530   Biso      1.000     C          0.6909270000000001  
         C12       1.0000    0.16800   0.32520   0.85490   Biso      1.000     C          0.007809999999999999          
         C13       1.0000    0.14510   0.33350   0.77610   Biso      1.000     C          -0.097343           
         C14       1.0000    0.09620   0.42840   0.72680   Biso      1.000     C          -0.021862           
         C15       1.0000    0.07160   0.51680   0.75570   Biso      1.000     C          -0.132575           
         C16       1.0000    0.09500   0.50680   0.83350   Biso      1.000     C          0.078917  
         C17       1.0000    0.14240   0.41260   0.88480   Biso      1.000     C          -0.123518           
         C18       1.0000    0.22220   0.22380   0.90930   Biso      1.000     C          0.587773  
         C19       1.0000    0.07010   0.43650   0.64210   Biso      1.000     C          0.688894  
         C20       1.0000    0.57470   0.30110   0.80960   Biso      1.000     C          -0.00798  
         C21       1.0000    0.49120   0.38320   0.80840   Biso      1.000     C          -0.134659           
         C22       1.0000    0.32240   0.67760   0.25000   Biso      1.000     C          -0.10195800000000001          
         C23       1.0000    0.67480   0.83200   0.64510   Biso      1.000     C          0.007809999999999999          
         C24       1.0000    0.66650   0.85490   0.72390   Biso      1.000     C          -0.097343           
         C25       1.0000    0.57160   0.90380   0.77320   Biso      1.000     C          -0.021862           
         C26       1.0000    0.48320   0.92840   0.74430   Biso      1.000     C          -0.132575           
         C27       1.0000    0.49320   0.90500   0.66650   Biso      1.000     C          0.078917  
         C28       1.0000    0.58740   0.85760   0.61520   Biso      1.000     C          -0.123518           
         C29       1.0000    0.77620   0.77780   0.59070   Biso      1.000     C          0.587773  
         C30       1.0000    0.56350   0.92990   0.85790   Biso      1.000     C          0.688894  
         C31       1.0000    0.32520   0.16800   0.35490   Biso      1.000     C          0.007816  
         C32       1.0000    0.18920   0.55100   0.37530   Biso      1.000     C          0.690928  
         C33       1.0000    0.50880   0.61680   0.19160   Biso      1.000     C          -0.13466199999999998          
         C34       1.0000    0.42530   0.69890   0.19040   Biso      1.000     C          -0.007976           
         C35       1.0000    0.51450   0.48550   0.75000   Biso      1.000     C          0.072499  
         C36       1.0000    0.67760   0.32240   0.75000   Biso      1.000     C          -0.10195800000000001          
         C37       1.0000    0.48550   0.51450   0.25000   Biso      1.000     C          0.072502  
         C38       1.0000    0.69890   0.42530   0.69040   Biso      1.000     C          -0.007978           
         C39       1.0000    0.44900   0.81080   0.12470   Biso      1.000     C          0.6909270000000001  
         C40       1.0000    0.83200   0.67480   0.14510   Biso      1.000     C          0.007809999999999999          
         C41       1.0000    0.61680   0.50880   0.69160   Biso      1.000     C          -0.134657           
         C42       1.0000    0.90380   0.57160   0.27320   Biso      1.000     C          -0.021863999999999998         
         C43       1.0000    0.92840   0.48320   0.24430   Biso      1.000     C          -0.132575           
         C44       1.0000    0.92990   0.56350   0.35790   Biso      1.000     C          0.688895  
         C45       1.0000    0.77780   0.77620   0.09070   Biso      1.000     C          0.587773  
         C46       1.0000    0.85760   0.58740   0.11520   Biso      1.000     C          -0.123518           
         C47       1.0000    0.90500   0.49320   0.16650   Biso      1.000     C          0.078917  
         C48       1.0000    0.85490   0.66650   0.22390   Biso      1.000     C          -0.097341           
         H1        1.0000    0.83710   0.72570   0.24400   Biso      1.000     H          0.139102  
         H2        1.0000    0.96000   0.41840   0.27700   Biso      1.000     H          0.139256  
         H3        1.0000    0.84370   0.59150   0.06210   Biso      1.000     H          0.143454  
         H4        1.0000    0.57900   0.63020   0.15400   Biso      1.000     H          0.151951  
         H5        1.0000    0.27430   0.16290   0.25600   Biso      1.000     H          0.139102  
         H6        1.0000    0.58160   0.04000   0.22300   Biso      1.000     H          0.139256  
         H7        1.0000    0.36980   0.42100   0.34600   Biso      1.000     H          0.151951  
         H8        1.0000    0.16290   0.27430   0.75600   Biso      1.000     H          0.139102  
         H9        1.0000    0.04000   0.58160   0.72300   Biso      1.000     H          0.139256  
         H10       1.0000    0.15630   0.40850   0.93790   Biso      1.000     H          0.143454  
         H11       1.0000    0.72570   0.83710   0.74400   Biso      1.000     H          0.139102  
         H12       1.0000    0.41840   0.96000   0.77700   Biso      1.000     H          0.139256  
         H13       1.0000    0.59150   0.84370   0.56210   Biso      1.000     H          0.143454  
         H14       1.0000    0.63020   0.57900   0.65400   Biso      1.000     H          0.151951  
         H15       1.0000    0.26660   0.73340   0.25000   Biso      1.000     H          0.127398  
         H16       1.0000    0.73340   0.26660   0.75000   Biso      1.000     H          0.127399  
         H17       1.0000    0.40850   0.15630   0.43790   Biso      1.000     H          0.143454  
         H18       1.0000    0.42100   0.36980   0.84600   Biso      1.000     H          0.151951  
         Ho1       1.0000    0.66281   0.95456   0.99796   Biso      1.000     Ho          2.078747  
         Ho2       1.0000    0.95456   0.66281   0.49796   Biso      1.000     Ho          2.078747  
         Ho3       1.0000    0.33719   0.04544   0.00204   Biso      1.000     Ho          2.078747  
         Ho4       1.0000    0.04544   0.33719   0.50204   Biso      1.000     Ho          2.078747  
         N1        1.0000    0.92770   0.39910   0.13430   Biso      1.000     N          0.542285  
         N2        1.0000    0.60090   0.07230   0.36570   Biso      1.000     N          0.542285  
         N3        1.0000    0.07230   0.60090   0.86570   Biso      1.000     N          0.542285  
         N4        1.0000    0.39910   0.92770   0.63430   Biso      1.000     N          0.542285  
         N5        1.0000    0.57410   0.42590   0.25000   Biso      1.000     N          0.533883  
         N6        1.0000    0.42590   0.57410   0.75000   Biso      1.000     N          0.533883  
         O1        1.0000    0.22920   0.22000   0.98460   Biso      1.000     O          -0.61519  
         O2        1.0000    0.45370   0.17410   0.91380   Biso      1.000     O          -0.649768           
         O3        1.0000    0.62750   0.12010   0.88940   Biso      1.000     O          -0.717987           
         O4        1.0000    0.08960   0.35300   0.62120   Biso      1.000     O          -0.646    
         O5        1.0000    0.03020   0.52580   0.59880   Biso      1.000     O          -0.728066           
         O6        1.0000    0.04060   0.68600   0.81470   Biso      1.000     O          -0.356281           
         O7        1.0000    0.08270   0.58810   0.93890   Biso      1.000     O          -0.329102           
         O8        1.0000    0.87990   0.37250   0.61060   Biso      1.000     O          -0.717987           
         O9        1.0000    0.85130   0.73550   0.62570   Biso      1.000     O          -0.672529           
         O10       1.0000    0.78000   0.77080   0.51540   Biso      1.000     O          -0.61519  
         O11       1.0000    0.82590   0.54630   0.58620   Biso      1.000     O          -0.649768           
         O12       1.0000    0.26450   0.14870   0.87430   Biso      1.000     O          -0.672529           
         O13       1.0000    0.64700   0.91040   0.87880   Biso      1.000     O          -0.646    
         O14       1.0000    0.47420   0.96980   0.90120   Biso      1.000     O          -0.728066           
         O15       1.0000    0.31400   0.95940   0.68530   Biso      1.000     O          -0.356281           
         O16       1.0000    0.33580   0.55140   0.79740   Biso      1.000     O          -0.33216999999999997          
         O17       1.0000    0.55140   0.33580   0.29740   Biso      1.000     O          -0.33216999999999997          
         O18       1.0000    0.35300   0.08960   0.12120   Biso      1.000     O          -0.646    
         O19       1.0000    0.68600   0.04060   0.31470   Biso      1.000     O          -0.356281           
         O20       1.0000    0.73550   0.85130   0.12570   Biso      1.000     O          -0.672529           
         O21       1.0000    0.77080   0.78000   0.01540   Biso      1.000     O          -0.61519  
         O22       1.0000    0.54630   0.82590   0.08620   Biso      1.000     O          -0.649768           
         O23       1.0000    0.37250   0.87990   0.11060   Biso      1.000     O          -0.717987           
         O24       1.0000    0.91040   0.64700   0.37880   Biso      1.000     O          -0.646    
         O25       1.0000    0.96980   0.47420   0.40120   Biso      1.000     O          -0.728066           
         O26       1.0000    0.95940   0.31400   0.18530   Biso      1.000     O          -0.356281           
         O27       1.0000    0.91730   0.41190   0.06110   Biso      1.000     O          -0.329102           
         O28       1.0000    0.66420   0.44860   0.20260   Biso      1.000     O          -0.33216999999999997          
         O29       1.0000    0.14870   0.26450   0.37430   Biso      1.000     O          -0.672529           
         O30       1.0000    0.22000   0.22920   0.48460   Biso      1.000     O          -0.615189           
         O31       1.0000    0.17410   0.45370   0.41380   Biso      1.000     O          -0.649768           
         O32       1.0000    0.12010   0.62750   0.38940   Biso      1.000     O          -0.717987           
         O33       1.0000    0.41190   0.91730   0.56110   Biso      1.000     O          -0.329102           
         O34       1.0000    0.52580   0.03020   0.09880   Biso      1.000     O          -0.728066           
         O35       1.0000    0.58810   0.08270   0.43890   Biso      1.000     O          -0.329102           
         O36       1.0000    0.44860   0.66420   0.70260   Biso      1.000     O          -0.33216999999999997 