
##########################################################################
#               Crystallographic Information Format file
#               Produced by PyCifRW module
#
#  This is a CIF file.  CIF has been adopted by the International
#  Union of Crystallography as the standard for data archiving and
#  transmission.
#
#  For information on this file format, follow the CIF links at
#  http://www.iucr.org
##########################################################################

data_image0

_cell_length_a                          13.8542
_cell_length_b                          13.8542
_cell_length_c                          16.445
_cell_angle_alpha                       67.1022
_cell_angle_beta                        67.1022
_cell_angle_gamma                       75.8689
_symmetry_space_group_name_H-M          'P 1'
_symmetry_int_tables_number             1
loop_
  _symmetry_equiv_pos_as_xyz
         'x, y, z' 
loop_
  _atom_site_label
  _atom_site_occupancy
  _atom_site_fract_x
  _atom_site_fract_y
  _atom_site_fract_z
  _atom_site_thermal_displace_type
  _atom_site_B_iso_or_equiv
  _atom_site_type_symbol
  _atom_site_charge
         C1        1.0000    0.83330   0.66810   0.14710   Biso      1.000     C          0.005505  
         C2        1.0000    0.14310   0.42010   0.88040   Biso      1.000     C          -0.120502           
         C3        1.0000    0.21940   0.23180   0.90720   Biso      1.000     C          0.596326  
         C4        1.0000    0.07350   0.43590   0.64160   Biso      1.000     C          0.673987  
         C5        1.0000    0.57580   0.30120   0.80910   Biso      1.000     C          -0.006842           
         C6        1.0000    0.49366   0.38286   0.80840   Biso      1.000     C          -0.139151           
         C7        1.0000    0.55180   0.19100   0.87500   Biso      1.000     C          0.685523  
         C8        1.0000    0.33190   0.16670   0.35290   Biso      1.000     C          0.005504  
         C9        1.0000    0.33790   0.14430   0.27560   Biso      1.000     C          -0.099055           
         C10       1.0000    0.43030   0.09890   0.22500   Biso      1.000     C          -0.015864           
         C11       1.0000    0.51870   0.07650   0.25170   Biso      1.000     C          -0.140631           
         C12       1.0000    0.51110   0.09930   0.32910   Biso      1.000     C          0.082886  
         C13       1.0000    0.42010   0.14310   0.38040   Biso      1.000     C          -0.12049  
         C14       1.0000    0.23180   0.21940   0.40720   Biso      1.000     C          0.596326  
         C15       1.0000    0.43590   0.07350   0.14160   Biso      1.000     C          0.673987  
         C16       1.0000    0.30120   0.57580   0.30910   Biso      1.000     C          -0.006842           
         C17       1.0000    0.38286   0.49366   0.30840   Biso      1.000     C          -0.139151           
         C18       1.0000    0.19100   0.55180   0.37500   Biso      1.000     C          0.685523  
         C19       1.0000    0.48290   0.51710   0.25000   Biso      1.000     C          0.080574  
         C20       1.0000    0.32270   0.67730   0.25000   Biso      1.000     C          -0.105229           
         C21       1.0000    0.51710   0.48290   0.75000   Biso      1.000     C          0.080574  
         C22       1.0000    0.67730   0.32270   0.75000   Biso      1.000     C          -0.105229           
         C23       1.0000    0.44820   0.80900   0.12500   Biso      1.000     C          0.685523  
         C24       1.0000    0.50634   0.61714   0.19160   Biso      1.000     C          -0.139147           
         C25       1.0000    0.09930   0.51110   0.82910   Biso      1.000     C          0.082896  
         C26       1.0000    0.42420   0.69880   0.19090   Biso      1.000     C          -0.006841           
         C27       1.0000    0.78060   0.76820   0.09280   Biso      1.000     C          0.596326  
         C28       1.0000    0.85690   0.57990   0.11960   Biso      1.000     C          -0.120501           
         C29       1.0000    0.90070   0.48890   0.17090   Biso      1.000     C          0.082896  
         C30       1.0000    0.92350   0.48130   0.24830   Biso      1.000     C          -0.140635           
         C31       1.0000    0.90110   0.56970   0.27500   Biso      1.000     C          -0.015861           
         C32       1.0000    0.85570   0.66210   0.22440   Biso      1.000     C          -0.099055           
         C33       1.0000    0.92650   0.56410   0.35840   Biso      1.000     C          0.673987  
         C34       1.0000    0.07650   0.51870   0.75170   Biso      1.000     C          -0.140635           
         C35       1.0000    0.09890   0.43030   0.72500   Biso      1.000     C          -0.015861           
         C36       1.0000    0.56970   0.90110   0.77500   Biso      1.000     C          -0.015864           
         C37       1.0000    0.16670   0.33190   0.85290   Biso      1.000     C          0.005506  
         C38       1.0000    0.80900   0.44820   0.62500   Biso      1.000     C          0.685523  
         C39       1.0000    0.61714   0.50634   0.69160   Biso      1.000     C          -0.139147           
         C40       1.0000    0.69880   0.42420   0.69090   Biso      1.000     C          -0.006841           
         C41       1.0000    0.56410   0.92650   0.85840   Biso      1.000     C          0.673987  
         C42       1.0000    0.76820   0.78060   0.59280   Biso      1.000     C          0.596326  
         C43       1.0000    0.57990   0.85690   0.61960   Biso      1.000     C          -0.120502           
         C44       1.0000    0.48890   0.90070   0.67090   Biso      1.000     C          0.082896  
         C45       1.0000    0.48130   0.92350   0.74830   Biso      1.000     C          -0.140632           
         C46       1.0000    0.66210   0.85570   0.72440   Biso      1.000     C          -0.099055           
         C47       1.0000    0.66810   0.83330   0.64710   Biso      1.000     C          0.005506  
         C48       1.0000    0.14430   0.33790   0.77560   Biso      1.000     C          -0.099056           
         H1        1.0000    0.15670   0.41730   0.93240   Biso      1.000     H          0.143503  
         H2        1.0000    0.04680   0.58200   0.71830   Biso      1.000     H          0.133072  
         H3        1.0000    0.15990   0.27850   0.75760   Biso      1.000     H          0.137518  
         H4        1.0000    0.84010   0.72150   0.24240   Biso      1.000     H          0.137518  
         H5        1.0000    0.58270   0.84330   0.56760   Biso      1.000     H          0.143503  
         H6        1.0000    0.41800   0.95320   0.78170   Biso      1.000     H          0.133072  
         H7        1.0000    0.42480   0.37000   0.84640   Biso      1.000     H          0.150855  
         H8        1.0000    0.63000   0.57520   0.65360   Biso      1.000     H          0.150854  
         H9        1.0000    0.27850   0.15990   0.25760   Biso      1.000     H          0.137518  
         H10       1.0000    0.84330   0.58270   0.06760   Biso      1.000     H          0.143503  
         H11       1.0000    0.41730   0.15670   0.43240   Biso      1.000     H          0.143502  
         H12       1.0000    0.37000   0.42480   0.34640   Biso      1.000     H          0.150855  
         H13       1.0000    0.95320   0.41800   0.28170   Biso      1.000     H          0.133072  
         H14       1.0000    0.72150   0.84010   0.74240   Biso      1.000     H          0.137518  
         H15       1.0000    0.57520   0.63000   0.15360   Biso      1.000     H          0.150854  
         H16       1.0000    0.73190   0.26810   0.75000   Biso      1.000     H          0.12908   
         H17       1.0000    0.26810   0.73190   0.25000   Biso      1.000     H          0.12908   
         H18       1.0000    0.58200   0.04680   0.21830   Biso      1.000     H          0.133072  
         N1        1.0000    0.56920   0.43080   0.25000   Biso      1.000     N          0.522907  
         N2        1.0000    0.43080   0.56920   0.75000   Biso      1.000     N          0.522907  
         N3        1.0000    0.39460   0.92380   0.64210   Biso      1.000     N          0.543956  
         N4        1.0000    0.60540   0.07620   0.35790   Biso      1.000     N          0.543957  
         N5        1.0000    0.92380   0.39460   0.14210   Biso      1.000     N          0.543956  
         N6        1.0000    0.07620   0.60540   0.85790   Biso      1.000     N          0.543956  
         Nd1       1.0000    0.95365   0.66626   0.49935   Biso      1.000     Nd          2.098555  
         Nd2       1.0000    0.66626   0.95365   0.99935   Biso      1.000     Nd          2.098555  
         Nd3       1.0000    0.04635   0.33374   0.50065   Biso      1.000     Nd          2.098555  
         Nd4       1.0000    0.33374   0.04635   0.00065   Biso      1.000     Nd          2.098555  
         O1        1.0000    0.15517   0.25115   0.37680   Biso      1.000     O          -0.675262           
         O2        1.0000    0.35261   0.09297   0.12250   Biso      1.000     O          -0.63306  
         O3        1.0000    0.52246   0.03146   0.09950   Biso      1.000     O          -0.727043           
         O4        1.0000    0.68920   0.05420   0.30400   Biso      1.000     O          -0.347107           
         O5        1.0000    0.59320   0.08080   0.43320   Biso      1.000     O          -0.342017           
         O6        1.0000    0.12533   0.62823   0.38950   Biso      1.000     O          -0.715972           
         O7        1.0000    0.17499   0.45699   0.41090   Biso      1.000     O          -0.645203           
         O8        1.0000    0.77058   0.77154   0.01940   Biso      1.000     O          -0.623208           
         O9        1.0000    0.22846   0.22942   0.48060   Biso      1.000     O          -0.623209           
         O10       1.0000    0.74885   0.84483   0.12320   Biso      1.000     O          -0.675262           
         O11       1.0000    0.90703   0.64739   0.37750   Biso      1.000     O          -0.633061           
         O12       1.0000    0.96854   0.47754   0.40050   Biso      1.000     O          -0.727043           
         O13       1.0000    0.94580   0.31080   0.19600   Biso      1.000     O          -0.347107           
         O14       1.0000    0.91920   0.40680   0.06680   Biso      1.000     O          -0.342017           
         O15       1.0000    0.37177   0.87467   0.11050   Biso      1.000     O          -0.715972           
         O16       1.0000    0.66003   0.45263   0.20620   Biso      1.000     O          -0.334447           
         O17       1.0000    0.45263   0.66003   0.70620   Biso      1.000     O          -0.334447           
         O18       1.0000    0.45699   0.17499   0.91090   Biso      1.000     O          -0.645202           
         O19       1.0000    0.62823   0.12533   0.88950   Biso      1.000     O          -0.715972           
         O20       1.0000    0.77154   0.77058   0.51940   Biso      1.000     O          -0.623208           
         O21       1.0000    0.84483   0.74885   0.62320   Biso      1.000     O          -0.675262           
         O22       1.0000    0.64739   0.90703   0.87750   Biso      1.000     O          -0.633061           
         O23       1.0000    0.47754   0.96854   0.90050   Biso      1.000     O          -0.727043           
         O24       1.0000    0.31080   0.94580   0.69600   Biso      1.000     O          -0.347107           
         O25       1.0000    0.40680   0.91920   0.56680   Biso      1.000     O          -0.342017           
         O26       1.0000    0.87467   0.37177   0.61050   Biso      1.000     O          -0.715972           
         O27       1.0000    0.82501   0.54301   0.58910   Biso      1.000     O          -0.645203           
         O28       1.0000    0.33997   0.54737   0.79380   Biso      1.000     O          -0.334447           
         O29       1.0000    0.22942   0.22846   0.98060   Biso      1.000     O          -0.623208           
         O30       1.0000    0.25115   0.15517   0.87680   Biso      1.000     O          -0.675262           
         O31       1.0000    0.09297   0.35261   0.62250   Biso      1.000     O          -0.63306  
         O32       1.0000    0.03146   0.52246   0.59950   Biso      1.000     O          -0.727043           
         O33       1.0000    0.05420   0.68920   0.80400   Biso      1.000     O          -0.347107           
         O34       1.0000    0.08080   0.59320   0.93320   Biso      1.000     O          -0.342017           
         O35       1.0000    0.54301   0.82501   0.08910   Biso      1.000     O          -0.645203           
         O36       1.0000    0.54737   0.33997   0.29380   Biso      1.000     O          -0.334447 