
##########################################################################
#               Crystallographic Information Format file
#               Produced by PyCifRW module
#
#  This is a CIF file.  CIF has been adopted by the International
#  Union of Crystallography as the standard for data archiving and
#  transmission.
#
#  For information on this file format, follow the CIF links at
#  http://www.iucr.org
##########################################################################

data_image0

_cell_length_a                          13.7038
_cell_length_b                          13.7038
_cell_length_c                          16.2156
_cell_angle_alpha                       66.6203
_cell_angle_beta                        66.6203
_cell_angle_gamma                       74.9858
_symmetry_space_group_name_H-M          'P 1'
_symmetry_int_tables_number             1
loop_
  _symmetry_equiv_pos_as_xyz
         'x, y, z' 
loop_
  _atom_site_label
  _atom_site_occupancy
  _atom_site_fract_x
  _atom_site_fract_y
  _atom_site_fract_z
  _atom_site_thermal_displace_type
  _atom_site_B_iso_or_equiv
  _atom_site_type_symbol
  _atom_site_charge
         C1        1.0000    0.27820   0.27640   0.09050   Biso      1.000     C          0.590705  
         C2        1.0000    0.98290   0.42850   0.74430   Biso      1.000     C          -0.13439500000000001          
         C3        1.0000    0.99210   0.40430   0.66670   Biso      1.000     C          0.084466  
         C4        1.0000    0.08650   0.35770   0.61590   Biso      1.000     C          -0.124973           
         C5        1.0000    0.06360   0.42900   0.85780   Biso      1.000     C          0.690263  
         C6        1.0000    0.31050   0.94950   0.62420   Biso      1.000     C          0.692249  
         C7        1.0000    0.19880   0.92600   0.68990   Biso      1.000     C          -0.011447           
         C8        1.0000    0.11570   0.00910   0.69180   Biso      1.000     C          -0.143697           
         C9        1.0000    0.72180   0.72360   0.90950   Biso      1.000     C          0.590705  
         C10       1.0000    0.66830   0.82590   0.85480   Biso      1.000     C          0.003971  
         C11       1.0000    0.07120   0.40440   0.77320   Biso      1.000     C          -0.02044  
         C12       1.0000    0.64470   0.83390   0.77580   Biso      1.000     C          -0.096216           
         C13       1.0000    0.57150   0.01710   0.75570   Biso      1.000     C          -0.13439500000000001          
         C14       1.0000    0.59570   0.00790   0.83330   Biso      1.000     C          0.084465  
         C15       1.0000    0.64230   0.91350   0.88410   Biso      1.000     C          -0.12496900000000001          
         C16       1.0000    0.57100   0.93640   0.64220   Biso      1.000     C          0.690262  
         C17       1.0000    0.05050   0.68950   0.87580   Biso      1.000     C          0.692249  
         C18       1.0000    0.07400   0.80120   0.81010   Biso      1.000     C          -0.011447           
         C19       1.0000    0.99090   0.88430   0.80820   Biso      1.000     C          -0.143697           
         C20       1.0000    0.72360   0.72180   0.40950   Biso      1.000     C          0.590705  
         C21       1.0000    0.82590   0.66830   0.35480   Biso      1.000     C          0.003971  
         C22       1.0000    0.59560   0.92880   0.72680   Biso      1.000     C          -0.020437999999999998         
         C23       1.0000    0.16610   0.35530   0.72420   Biso      1.000     C          -0.096215           
         C24       1.0000    0.17410   0.33170   0.64520   Biso      1.000     C          0.003974  
         C25       1.0000    0.27640   0.27820   0.59050   Biso      1.000     C          0.590704  
         C26       1.0000    0.98630   0.01370   0.25000   Biso      1.000     C          0.07307999999999999           
         C27       1.0000    0.82270   0.17730   0.25000   Biso      1.000     C          -0.100506           
         C28       1.0000    0.01370   0.98630   0.75000   Biso      1.000     C          0.073086  
         C29       1.0000    0.17730   0.82270   0.75000   Biso      1.000     C          -0.100505           
         C30       1.0000    0.00910   0.11570   0.19180   Biso      1.000     C          -0.143696           
         C31       1.0000    0.92600   0.19880   0.18990   Biso      1.000     C          -0.011445           
         C32       1.0000    0.94950   0.31050   0.12420   Biso      1.000     C          0.692249  
         C33       1.0000    0.42900   0.06360   0.35780   Biso      1.000     C          0.690263  
         C34       1.0000    0.35770   0.08650   0.11590   Biso      1.000     C          -0.124973           
         C35       1.0000    0.40430   0.99210   0.16670   Biso      1.000     C          0.084462  
         C36       1.0000    0.42850   0.98290   0.24430   Biso      1.000     C          -0.134391           
         C37       1.0000    0.40440   0.07120   0.27320   Biso      1.000     C          -0.02044  
         C38       1.0000    0.35530   0.16610   0.22420   Biso      1.000     C          -0.096215           
         C39       1.0000    0.33170   0.17410   0.14520   Biso      1.000     C          0.003974  
         C40       1.0000    0.88430   0.99090   0.30820   Biso      1.000     C          -0.143696           
         C41       1.0000    0.80120   0.07400   0.31010   Biso      1.000     C          -0.011445           
         C42       1.0000    0.68950   0.05050   0.37580   Biso      1.000     C          0.692249  
         C43       1.0000    0.93640   0.57100   0.14220   Biso      1.000     C          0.690263  
         C44       1.0000    0.91350   0.64230   0.38410   Biso      1.000     C          -0.12497  
         C45       1.0000    0.00790   0.59570   0.33330   Biso      1.000     C          0.084462  
         C46       1.0000    0.01710   0.57150   0.25570   Biso      1.000     C          -0.134391           
         C47       1.0000    0.83390   0.64470   0.27580   Biso      1.000     C          -0.096216           
         C48       1.0000    0.92880   0.59560   0.22680   Biso      1.000     C          -0.020439           
         Dy1       1.0000    0.45462   0.16301   0.49778   Biso      1.000     Dy          2.077856  
         Dy2       1.0000    0.83699   0.54538   0.00222   Biso      1.000     Dy          2.077856  
         Dy3       1.0000    0.54538   0.83699   0.50222   Biso      1.000     Dy          2.077856  
         Dy4       1.0000    0.16301   0.45462   0.99778   Biso      1.000     Dy          2.077856  
         H1        1.0000    0.23310   0.76690   0.75000   Biso      1.000     H          0.12701700000000002           
         H2        1.0000    0.22500   0.33780   0.74430   Biso      1.000     H          0.139906  
         H3        1.0000    0.91850   0.46050   0.77680   Biso      1.000     H          0.13830699999999999           
         H4        1.0000    0.09080   0.34420   0.56260   Biso      1.000     H          0.142625  
         H5        1.0000    0.12880   0.07920   0.65430   Biso      1.000     H          0.162326  
         H6        1.0000    0.66220   0.77500   0.75570   Biso      1.000     H          0.139906  
         H7        1.0000    0.53950   0.08150   0.72320   Biso      1.000     H          0.13830699999999999           
         H8        1.0000    0.65580   0.90920   0.93740   Biso      1.000     H          0.142625  
         H9        1.0000    0.77500   0.66220   0.25570   Biso      1.000     H          0.139906  
         H10       1.0000    0.08150   0.53950   0.22320   Biso      1.000     H          0.13830699999999999           
         H11       1.0000    0.90920   0.65580   0.43740   Biso      1.000     H          0.142625  
         H12       1.0000    0.76690   0.23310   0.25000   Biso      1.000     H          0.12701700000000002           
         H13       1.0000    0.87120   0.92080   0.34570   Biso      1.000     H          0.162326  
         H14       1.0000    0.33780   0.22500   0.24430   Biso      1.000     H          0.139906  
         H15       1.0000    0.46050   0.91850   0.27680   Biso      1.000     H          0.13830699999999999           
         H16       1.0000    0.34420   0.09080   0.06260   Biso      1.000     H          0.142625  
         H17       1.0000    0.07920   0.12880   0.15430   Biso      1.000     H          0.162326  
         H18       1.0000    0.92080   0.87120   0.84570   Biso      1.000     H          0.162326  
         N1        1.0000    0.92580   0.07420   0.75000   Biso      1.000     N          0.5385310000000001  
         N2        1.0000    0.07420   0.92580   0.25000   Biso      1.000     N          0.538532  
         N3        1.0000    0.42760   0.89900   0.13480   Biso      1.000     N          0.540922  
         N4        1.0000    0.89900   0.42760   0.63480   Biso      1.000     N          0.540922  
         N5        1.0000    0.57240   0.10100   0.86520   Biso      1.000     N          0.540922  
         N6        1.0000    0.10100   0.57240   0.36520   Biso      1.000     N          0.540922  
         O1        1.0000    0.64910   0.76250   0.37500   Biso      1.000     O          -0.663597           
         O2        1.0000    0.85320   0.58980   0.12200   Biso      1.000     O          -0.639476           
         O3        1.0000    0.02650   0.53070   0.09910   Biso      1.000     O          -0.7356520000000001           
         O4        1.0000    0.08890   0.58270   0.43860   Biso      1.000     O          -0.333338           
         O5        1.0000    0.18600   0.54140   0.31390   Biso      1.000     O          -0.354167           
         O6        1.0000    0.67420   0.95360   0.41340   Biso      1.000     O          -0.651208           
         O7        1.0000    0.62130   0.12770   0.38880   Biso      1.000     O          -0.71533  
         O8        1.0000    0.16440   0.94800   0.20270   Biso      1.000     O          -0.335852           
         O9        1.0000    0.23750   0.35090   0.12500   Biso      1.000     O          -0.663597           
         O10       1.0000    0.04640   0.32580   0.08660   Biso      1.000     O          -0.651208           
         O11       1.0000    0.41020   0.14680   0.37800   Biso      1.000     O          -0.639476           
         O12       1.0000    0.46930   0.97350   0.40090   Biso      1.000     O          -0.7356520000000001           
         O13       1.0000    0.41730   0.91110   0.06140   Biso      1.000     O          -0.333338           
         O14       1.0000    0.45860   0.81400   0.18610   Biso      1.000     O          -0.354167           
         O15       1.0000    0.71990   0.72830   0.48530   Biso      1.000     O          -0.6228779999999999           
         O16       1.0000    0.27170   0.28010   0.01470   Biso      1.000     O          -0.6228779999999999           
         O17       1.0000    0.94800   0.16440   0.70270   Biso      1.000     O          -0.335851           
         O18       1.0000    0.91110   0.41730   0.56140   Biso      1.000     O          -0.333338           
         O19       1.0000    0.95360   0.67420   0.91340   Biso      1.000     O          -0.651208           
         O20       1.0000    0.87230   0.37870   0.11120   Biso      1.000     O          -0.71533  
         O21       1.0000    0.28010   0.27170   0.51470   Biso      1.000     O          -0.6228779999999999           
         O22       1.0000    0.35090   0.23750   0.62500   Biso      1.000     O          -0.663597           
         O23       1.0000    0.14680   0.41020   0.87800   Biso      1.000     O          -0.639476           
         O24       1.0000    0.97350   0.46930   0.90090   Biso      1.000     O          -0.7356520000000001           
         O25       1.0000    0.81400   0.45860   0.68610   Biso      1.000     O          -0.354167           
         O26       1.0000    0.32580   0.04640   0.58660   Biso      1.000     O          -0.651208           
         O27       1.0000    0.37870   0.87230   0.61120   Biso      1.000     O          -0.715331           
         O28       1.0000    0.83560   0.05200   0.79730   Biso      1.000     O          -0.335851           
         O29       1.0000    0.72830   0.71990   0.98530   Biso      1.000     O          -0.6228779999999999           
         O30       1.0000    0.76250   0.64910   0.87500   Biso      1.000     O          -0.663597           
         O31       1.0000    0.58980   0.85320   0.62200   Biso      1.000     O          -0.639476           
         O32       1.0000    0.53070   0.02650   0.59910   Biso      1.000     O          -0.7356520000000001           
         O33       1.0000    0.58270   0.08890   0.93860   Biso      1.000     O          -0.333338           
         O34       1.0000    0.54140   0.18600   0.81390   Biso      1.000     O          -0.354167           
         O35       1.0000    0.12770   0.62130   0.88880   Biso      1.000     O          -0.715331           
         O36       1.0000    0.05200   0.83560   0.29730   Biso      1.000     O          -0.335851 