
##########################################################################
#               Crystallographic Information Format file
#               Produced by PyCifRW module
#
#  This is a CIF file.  CIF has been adopted by the International
#  Union of Crystallography as the standard for data archiving and
#  transmission.
#
#  For information on this file format, follow the CIF links at
#  http://www.iucr.org
##########################################################################

data_image0

_cell_length_a                          5.4028
_cell_length_b                          11.2862
_cell_length_c                          13.9175
_cell_angle_alpha                       90
_cell_angle_beta                        90
_cell_angle_gamma                       102.875
_symmetry_space_group_name_H-M          'P 1'
_symmetry_int_tables_number             1
loop_
  _symmetry_equiv_pos_as_xyz
         'x, y, z' 
loop_
  _atom_site_label
  _atom_site_occupancy
  _atom_site_fract_x
  _atom_site_fract_y
  _atom_site_fract_z
  _atom_site_thermal_displace_type
  _atom_site_B_iso_or_equiv
  _atom_site_type_symbol
  _atom_site_charge
         C1        1.0000    0.84150   0.71560   0.81884   Biso      1.000     C          0.009575  
         C2        1.0000    0.84030   0.71440   0.32320   Biso      1.000     C          -0.155111           
         C3        1.0000    0.50810   0.67930   0.17386   Biso      1.000     C          0.091971  
         C4        1.0000    0.48910   0.76550   0.24255   Biso      1.000     C          -0.167504           
         C5        1.0000    0.84270   0.62980   0.25159   Biso      1.000     C          0.082846  
         C6        1.0000    0.86410   0.62520   0.89689   Biso      1.000     C          0.645859  
         C7        1.0000    0.34030   0.21440   0.17680   Biso      1.000     C          -0.155111           
         C8        1.0000    0.65970   0.78560   0.82320   Biso      1.000     C          -0.155109           
         C9        1.0000    0.65850   0.78440   0.31884   Biso      1.000     C          0.009577  
         C10       1.0000    0.99190   0.82070   0.67386   Biso      1.000     C          0.091971  
         C11       1.0000    0.65730   0.87020   0.75159   Biso      1.000     C          0.082846  
         C12       1.0000    0.36410   0.12520   0.60311   Biso      1.000     C          0.645859  
         C13       1.0000    0.34150   0.21560   0.68116   Biso      1.000     C          0.009575  
         C14       1.0000    0.15970   0.28560   0.67680   Biso      1.000     C          -0.155109           
         C15       1.0000    0.49190   0.32070   0.82614   Biso      1.000     C          0.091971  
         C16       1.0000    0.51090   0.23450   0.75745   Biso      1.000     C          -0.167505           
         C17       1.0000    0.15730   0.37020   0.74841   Biso      1.000     C          0.082846  
         C18       1.0000    0.01090   0.73450   0.74255   Biso      1.000     C          -0.167504           
         C19       1.0000    0.63590   0.87480   0.39689   Biso      1.000     C          0.645859  
         C20       1.0000    0.15850   0.28440   0.18116   Biso      1.000     C          0.009577  
         C21       1.0000    0.34270   0.12980   0.24841   Biso      1.000     C          0.082846  
         C22       1.0000    0.98910   0.26550   0.25745   Biso      1.000     C          -0.167506           
         C23       1.0000    0.00810   0.17930   0.32614   Biso      1.000     C          0.091972  
         C24       1.0000    0.13590   0.37480   0.10311   Biso      1.000     C          0.645859  
         H1        1.0000    0.86430   0.31020   0.26240   Biso      1.000     H          0.12291400000000001           
         H2        1.0000    0.95740   0.72430   0.37320   Biso      1.000     H          0.132571  
         H3        1.0000    0.39450   0.66820   0.12270   Biso      1.000     H          0.093669  
         H4        1.0000    0.36430   0.81020   0.23760   Biso      1.000     H          0.12291300000000001           
         H5        1.0000    0.96370   0.58290   0.25530   Biso      1.000     H          0.081511  
         H6        1.0000    0.54260   0.77570   0.87320   Biso      1.000     H          0.132571  
         H7        1.0000    0.10550   0.83180   0.62270   Biso      1.000     H          0.093669  
         H8        1.0000    0.53630   0.91710   0.75530   Biso      1.000     H          0.081511  
         H9        1.0000    0.04260   0.27570   0.62680   Biso      1.000     H          0.13257   
         H10       1.0000    0.60550   0.33180   0.87730   Biso      1.000     H          0.093669  
         H11       1.0000    0.63570   0.18980   0.76240   Biso      1.000     H          0.12291300000000001           
         H12       1.0000    0.03630   0.41710   0.74470   Biso      1.000     H          0.081511  
         H13       1.0000    0.45740   0.22430   0.12680   Biso      1.000     H          0.132571  
         H14       1.0000    0.89450   0.16820   0.37730   Biso      1.000     H          0.093669  
         H15       1.0000    0.13570   0.68980   0.73760   Biso      1.000     H          0.12291300000000001           
         H16       1.0000    0.46370   0.08290   0.24470   Biso      1.000     H          0.081511  
         Li1       1.0000    0.81240   0.00890   0.56580   Biso      1.000     Li          0.7862600000000001  
         Li2       1.0000    0.31240   0.50890   0.93420   Biso      1.000     Li          0.786261  
         Li3       1.0000    0.18760   0.99110   0.43420   Biso      1.000     Li          0.786261  
         Li4       1.0000    0.68760   0.49110   0.06580   Biso      1.000     Li          0.786261  
         N1        1.0000    0.68160   0.61120   0.17727   Biso      1.000     N          -0.32818800000000004          
         N2        1.0000    0.81840   0.88880   0.67727   Biso      1.000     N          -0.328187           
         N3        1.0000    0.31840   0.38880   0.82273   Biso      1.000     N          -0.32818800000000004          
         N4        1.0000    0.18160   0.11120   0.32273   Biso      1.000     N          -0.32818800000000004          
         O1        1.0000    0.82600   0.91302   0.44943   Biso      1.000     O          -0.728268           
         O2        1.0000    0.42790   0.90417   0.40297   Biso      1.000     O          -0.6681060000000001           
         O3        1.0000    0.67400   0.58698   0.94943   Biso      1.000     O          -0.728268           
         O4        1.0000    0.07210   0.59583   0.90297   Biso      1.000     O          -0.6681060000000001           
         O5        1.0000    0.17400   0.08698   0.55057   Biso      1.000     O          -0.728268           
         O6        1.0000    0.57210   0.09583   0.59703   Biso      1.000     O          -0.6681060000000001           
         O7        1.0000    0.32600   0.41302   0.05057   Biso      1.000     O          -0.728268           
         O8        1.0000    0.92790   0.40417   0.09703   Biso      1.000     O          -0.6681060000000001 