
##########################################################################
#               Crystallographic Information Format file
#               Produced by PyCifRW module
#
#  This is a CIF file.  CIF has been adopted by the International
#  Union of Crystallography as the standard for data archiving and
#  transmission.
#
#  For information on this file format, follow the CIF links at
#  http://www.iucr.org
##########################################################################

data_image0

_cell_length_a                          10.8681
_cell_length_b                          9.8358
_cell_length_c                          14.6059
_cell_angle_alpha                       90
_cell_angle_beta                        94.096
_cell_angle_gamma                       90
_symmetry_space_group_name_H-M          'P 1'
_symmetry_int_tables_number             1
loop_
  _symmetry_equiv_pos_as_xyz
         'x, y, z' 
loop_
  _atom_site_label
  _atom_site_occupancy
  _atom_site_fract_x
  _atom_site_fract_y
  _atom_site_fract_z
  _atom_site_thermal_displace_type
  _atom_site_B_iso_or_equiv
  _atom_site_type_symbol
  _atom_site_charge
         C1        1.0000    0.27850   0.32450   0.17603   Biso      1.000     C          0.085627  
         C2        1.0000    0.72150   0.67550   0.82397   Biso      1.000     C          0.085626  
         C3        1.0000    0.78370   0.22390   0.24409   Biso      1.000     C          -0.171745           
         C4        1.0000    0.52026   0.85560   0.27497   Biso      1.000     C          0.08592   
         C5        1.0000    0.74260   0.74470   0.24831   Biso      1.000     C          -0.166638           
         C6        1.0000    0.80950   0.30570   0.17060   Biso      1.000     C          0.090692  
         C7        1.0000    0.53195   0.77420   0.19850   Biso      1.000     C          -0.161086           
         C8        1.0000    0.64579   0.71910   0.18380   Biso      1.000     C          0.017528  
         C9        1.0000    0.66709   0.63700   0.09876   Biso      1.000     C          0.643566  
         C10       1.0000    0.97180   0.09590   0.75203   Biso      1.000     C          0.092511  
         C11       1.0000    0.97180   0.40410   0.25203   Biso      1.000     C          0.09251   
         C12       1.0000    0.80950   0.19430   0.67060   Biso      1.000     C          0.090691  
         C13       1.0000    0.66709   0.86300   0.59876   Biso      1.000     C          0.643566  
         C14       1.0000    0.78370   0.27610   0.74409   Biso      1.000     C          -0.171743           
         C15       1.0000    0.47974   0.14440   0.72503   Biso      1.000     C          0.08592   
         C16       1.0000    0.85862   0.26760   0.82480   Biso      1.000     C          0.02232   
         C17       1.0000    0.95560   0.17640   0.82804   Biso      1.000     C          -0.166851           
         C18       1.0000    0.64579   0.78090   0.68380   Biso      1.000     C          0.017523  
         C19       1.0000    0.83244   0.35290   0.90758   Biso      1.000     C          0.64518   
         C20       1.0000    0.21630   0.72390   0.25591   Biso      1.000     C          -0.171745           
         C21       1.0000    0.53195   0.72580   0.69850   Biso      1.000     C          -0.161082           
         C22       1.0000    0.19050   0.80570   0.32940   Biso      1.000     C          0.090693  
         C23       1.0000    0.74260   0.75530   0.74831   Biso      1.000     C          -0.166636           
         C24       1.0000    0.02820   0.90410   0.24797   Biso      1.000     C          0.09251   
         C25       1.0000    0.14138   0.73240   0.17520   Biso      1.000     C          0.02232   
         C26       1.0000    0.04440   0.82360   0.17196   Biso      1.000     C          -0.166851           
         C27       1.0000    0.72150   0.82450   0.32397   Biso      1.000     C          0.085627  
         C28       1.0000    0.85862   0.23240   0.32480   Biso      1.000     C          0.02232   
         C29       1.0000    0.47974   0.35560   0.22503   Biso      1.000     C          0.08592   
         C30       1.0000    0.27850   0.17550   0.67603   Biso      1.000     C          0.085627  
         C31       1.0000    0.25740   0.24470   0.25169   Biso      1.000     C          -0.166639           
         C32       1.0000    0.25740   0.25530   0.75169   Biso      1.000     C          -0.166639           
         C33       1.0000    0.46805   0.27420   0.30150   Biso      1.000     C          -0.161086           
         C34       1.0000    0.35421   0.21910   0.31620   Biso      1.000     C          0.017528  
         C35       1.0000    0.33291   0.13700   0.40124   Biso      1.000     C          0.643566  
         C36       1.0000    0.02820   0.59590   0.74797   Biso      1.000     C          0.09251   
         C37       1.0000    0.19050   0.69430   0.82940   Biso      1.000     C          0.090691  
         C38       1.0000    0.21630   0.77610   0.75591   Biso      1.000     C          -0.171743           
         C39       1.0000    0.46805   0.22580   0.80150   Biso      1.000     C          -0.161086           
         C40       1.0000    0.14138   0.76760   0.67520   Biso      1.000     C          0.02232   
         C41       1.0000    0.95560   0.32360   0.32804   Biso      1.000     C          -0.166851           
         C42       1.0000    0.16756   0.64710   0.09242   Biso      1.000     C          0.64518   
         C43       1.0000    0.35421   0.28090   0.81620   Biso      1.000     C          0.017528  
         C44       1.0000    0.83244   0.14710   0.40758   Biso      1.000     C          0.64518   
         C45       1.0000    0.16756   0.85290   0.59242   Biso      1.000     C          0.64518   
         C46       1.0000    0.52026   0.64440   0.77497   Biso      1.000     C          0.085921  
         C47       1.0000    0.04440   0.67640   0.67196   Biso      1.000     C          -0.166851           
         C48       1.0000    0.33291   0.36300   0.90124   Biso      1.000     C          0.643566  
         H1        1.0000    0.17780   0.29170   0.75910   Biso      1.000     H          0.119574  
         H2        1.0000    0.03710   0.46860   0.25590   Biso      1.000     H          0.079538  
         H3        1.0000    0.71570   0.16300   0.23920   Biso      1.000     H          0.128082  
         H4        1.0000    0.75920   0.29670   0.11500   Biso      1.000     H          0.095101  
         H5        1.0000    0.01020   0.33100   0.38160   Biso      1.000     H          0.134728  
         H6        1.0000    0.82220   0.79170   0.74090   Biso      1.000     H          0.119574  
         H7        1.0000    0.53740   0.24350   0.84320   Biso      1.000     H          0.124997  
         H8        1.0000    0.44220   0.60460   0.78320   Biso      1.000     H          0.081149  
         H9        1.0000    0.21190   0.16040   0.63140   Biso      1.000     H          0.091171  
         H10       1.0000    0.46260   0.74350   0.65680   Biso      1.000     H          0.124997  
         H11       1.0000    0.71570   0.33700   0.73920   Biso      1.000     H          0.128082  
         H12       1.0000    0.96290   0.96860   0.24410   Biso      1.000     H          0.079538  
         H13       1.0000    0.21190   0.33960   0.13140   Biso      1.000     H          0.091171  
         H14       1.0000    0.55780   0.39540   0.21680   Biso      1.000     H          0.081149  
         H15       1.0000    0.17780   0.20830   0.25910   Biso      1.000     H          0.119574  
         H16       1.0000    0.53740   0.25650   0.34320   Biso      1.000     H          0.124997  
         H17       1.0000    0.96290   0.53140   0.74410   Biso      1.000     H          0.079538  
         H18       1.0000    0.24080   0.70330   0.88500   Biso      1.000     H          0.095101  
         H19       1.0000    0.28430   0.83700   0.76080   Biso      1.000     H          0.128082  
         H20       1.0000    0.98980   0.66900   0.61840   Biso      1.000     H          0.134727  
         H21       1.0000    0.78810   0.66040   0.86860   Biso      1.000     H          0.091171  
         H22       1.0000    0.78810   0.83960   0.36860   Biso      1.000     H          0.091171  
         H23       1.0000    0.98980   0.83100   0.11840   Biso      1.000     H          0.134728  
         H24       1.0000    0.01020   0.16900   0.88160   Biso      1.000     H          0.134728  
         H25       1.0000    0.24080   0.79670   0.38500   Biso      1.000     H          0.095101  
         H26       1.0000    0.28430   0.66300   0.26080   Biso      1.000     H          0.128082  
         H27       1.0000    0.44220   0.89540   0.28320   Biso      1.000     H          0.08115   
         H28       1.0000    0.75920   0.20330   0.61500   Biso      1.000     H          0.095101  
         H29       1.0000    0.03710   0.03140   0.75590   Biso      1.000     H          0.079538  
         H30       1.0000    0.55780   0.10460   0.71680   Biso      1.000     H          0.08115   
         H31       1.0000    0.82220   0.70830   0.24090   Biso      1.000     H          0.119574  
         H32       1.0000    0.46260   0.75650   0.15680   Biso      1.000     H          0.124997  
         Li1       1.0000    0.40470   0.51580   0.05590   Biso      1.000     Li          0.778855  
         Li2       1.0000    0.08980   0.47880   0.93950   Biso      1.000     Li          0.77909   
         Li3       1.0000    0.91020   0.97880   0.56050   Biso      1.000     Li          0.779091  
         Li4       1.0000    0.59530   0.01580   0.44410   Biso      1.000     Li          0.778856  
         Li5       1.0000    0.08980   0.02120   0.43950   Biso      1.000     Li          0.779091  
         Li6       1.0000    0.91020   0.52120   0.06050   Biso      1.000     Li          0.779091  
         Li7       1.0000    0.59530   0.48420   0.94410   Biso      1.000     Li          0.778858  
         Li8       1.0000    0.40470   0.98420   0.55590   Biso      1.000     Li          0.778858  
         N1        1.0000    0.90105   0.10380   0.67356   Biso      1.000     N          -0.335561           
         N2        1.0000    0.61298   0.61890   0.83747   Biso      1.000     N          -0.327621           
         N3        1.0000    0.38702   0.38110   0.16253   Biso      1.000     N          -0.32762  
         N4        1.0000    0.90105   0.39620   0.17356   Biso      1.000     N          -0.335561           
         N5        1.0000    0.61298   0.88110   0.33747   Biso      1.000     N          -0.32762  
         N6        1.0000    0.38702   0.11890   0.66253   Biso      1.000     N          -0.327621           
         N7        1.0000    0.09895   0.60380   0.82644   Biso      1.000     N          -0.335561           
         N8        1.0000    0.09895   0.89620   0.32644   Biso      1.000     N          -0.335561           
         O1        1.0000    0.22676   0.13682   0.42841   Biso      1.000     O          -0.670674           
         O2        1.0000    0.42460   0.07630   0.43954   Biso      1.000     O          -0.71949  
         O3        1.0000    0.07666   0.59000   0.05023   Biso      1.000     O          -0.721928           
         O4        1.0000    0.27657   0.64094   0.07242   Biso      1.000     O          -0.654038           
         O5        1.0000    0.42460   0.42370   0.93954   Biso      1.000     O          -0.71949  
         O6        1.0000    0.22676   0.36318   0.92841   Biso      1.000     O          -0.670674           
         O7        1.0000    0.77324   0.86318   0.57159   Biso      1.000     O          -0.670675           
         O8        1.0000    0.57540   0.92370   0.56046   Biso      1.000     O          -0.71949  
         O9        1.0000    0.92334   0.09000   0.44977   Biso      1.000     O          -0.721928           
         O10       1.0000    0.72343   0.14094   0.42758   Biso      1.000     O          -0.654039           
         O11       1.0000    0.77324   0.63682   0.07159   Biso      1.000     O          -0.670675           
         O12       1.0000    0.57540   0.57630   0.06046   Biso      1.000     O          -0.71949  
         O13       1.0000    0.72343   0.35906   0.92758   Biso      1.000     O          -0.654039           
         O14       1.0000    0.92334   0.41000   0.94977   Biso      1.000     O          -0.721928           
         O15       1.0000    0.07666   0.91000   0.55023   Biso      1.000     O          -0.721928           
         O16       1.0000    0.27657   0.85906   0.57242   Biso      1.000     O          -0.654039 