
##########################################################################
#               Crystallographic Information Format file
#               Produced by PyCifRW module
#
#  This is a CIF file.  CIF has been adopted by the International
#  Union of Crystallography as the standard for data archiving and
#  transmission.
#
#  For information on this file format, follow the CIF links at
#  http://www.iucr.org
##########################################################################

data_image0

_cell_length_a                          10.8093
_cell_length_b                          14.3476
_cell_length_c                          10.8243
_cell_angle_alpha                       90
_cell_angle_beta                        103.559
_cell_angle_gamma                       90
_symmetry_space_group_name_H-M          'P 1'
_symmetry_int_tables_number             1
loop_
  _symmetry_equiv_pos_as_xyz
         'x, y, z' 
loop_
  _atom_site_label
  _atom_site_occupancy
  _atom_site_fract_x
  _atom_site_fract_y
  _atom_site_fract_z
  _atom_site_thermal_displace_type
  _atom_site_B_iso_or_equiv
  _atom_site_type_symbol
  _atom_site_charge
         C1        1.0000    0.62580   0.09061   0.05980   Biso      1.000     C          0.08793200000000001           
         C2        1.0000    0.80020   0.67363   0.38230   Biso      1.000     C          0.086177  
         C3        1.0000    0.04380   0.68083   0.86518   Biso      1.000     C          0.09226000000000001           
         C4        1.0000    0.79350   0.59936   0.46290   Biso      1.000     C          -0.163639           
         C5        1.0000    0.80340   0.02801   0.38010   Biso      1.000     C          0.641595  
         C6        1.0000    0.64200   0.68707   0.54240   Biso      1.000     C          -0.164461           
         C7        1.0000    0.34230   0.25890   0.53770   Biso      1.000     C          0.086354  
         C8        1.0000    0.30560   0.02548   0.37125   Biso      1.000     C          0.64183   
         C9        1.0000    0.63660   0.16353   0.97885   Biso      1.000     C          -0.168791           
         C10       1.0000    0.03900   0.75298   0.94908   Biso      1.000     C          -0.159606           
         C11       1.0000    0.21090   0.60691   0.53117   Biso      1.000     C          0.016617  
         C12       1.0000    0.31060   0.67917   0.38050   Biso      1.000     C          0.088588  
         C13       1.0000    0.19980   0.17363   0.61770   Biso      1.000     C          0.086177  
         C14       1.0000    0.89770   0.59565   0.93800   Biso      1.000     C          0.084366  
         C15       1.0000    0.44100   0.14950   0.09520   Biso      1.000     C          0.085472  
         C16       1.0000    0.88430   0.66487   0.02340   Biso      1.000     C          -0.166258           
         C17       1.0000    0.54350   0.23236   0.95591   Biso      1.000     C          0.0212    
         C18       1.0000    0.30890   0.60828   0.46730   Biso      1.000     C          -0.157422           
         C19       1.0000    0.28884   0.10559   0.45630   Biso      1.000     C          0.019831  
         C20       1.0000    0.94132   0.82398   0.11920   Biso      1.000     C          0.6421979999999999  
         C21       1.0000    0.44200   0.22374   0.01360   Biso      1.000     C          -0.1658   
         C22       1.0000    0.55800   0.72374   0.98640   Biso      1.000     C          -0.165802           
         C23       1.0000    0.37420   0.59061   0.94020   Biso      1.000     C          0.08793200000000001           
         C24       1.0000    0.95625   0.74561   0.02927   Biso      1.000     C          0.015216  
         C25       1.0000    0.86710   0.24734   0.57890   Biso      1.000     C          0.081304  
         C26       1.0000    0.55717   0.31735   0.87747   Biso      1.000     C          0.639756  
         C27       1.0000    0.95620   0.18083   0.13482   Biso      1.000     C          0.09226000000000001           
         C28       1.0000    0.87760   0.17836   0.49290   Biso      1.000     C          -0.16208699999999998          
         C29       1.0000    0.11570   0.16487   0.97660   Biso      1.000     C          -0.166258           
         C30       1.0000    0.05868   0.32398   0.88080   Biso      1.000     C          0.6421979999999999  
         C31       1.0000    0.04375   0.24561   0.97073   Biso      1.000     C          0.015216999999999998          
         C32       1.0000    0.71116   0.60559   0.54370   Biso      1.000     C          0.019832  
         C33       1.0000    0.19660   0.52801   0.61990   Biso      1.000     C          0.641596  
         C34       1.0000    0.55900   0.64950   0.90480   Biso      1.000     C          0.08547300000000001           
         C35       1.0000    0.78910   0.10691   0.46883   Biso      1.000     C          0.016619  
         C36       1.0000    0.10230   0.09565   0.06200   Biso      1.000     C          0.084365  
         C37       1.0000    0.45650   0.73236   0.04409   Biso      1.000     C          0.0212    
         C38       1.0000    0.68940   0.17917   0.61950   Biso      1.000     C          0.088587  
         C39       1.0000    0.96100   0.25298   0.05092   Biso      1.000     C          -0.159608           
         C40       1.0000    0.69440   0.52548   0.62875   Biso      1.000     C          0.641831  
         C41       1.0000    0.12240   0.67836   0.50710   Biso      1.000     C          -0.16208699999999998          
         C42       1.0000    0.69110   0.10828   0.53270   Biso      1.000     C          -0.157422           
         C43       1.0000    0.35800   0.18707   0.45760   Biso      1.000     C          -0.16446  
         C44       1.0000    0.65770   0.75890   0.46230   Biso      1.000     C          0.086354  
         C45       1.0000    0.13290   0.74734   0.42110   Biso      1.000     C          0.08130599999999999           
         C46       1.0000    0.20650   0.09936   0.53710   Biso      1.000     C          -0.163638           
         C47       1.0000    0.36340   0.66353   0.02115   Biso      1.000     C          -0.168792           
         C48       1.0000    0.44283   0.81735   0.12253   Biso      1.000     C          0.639756  
         H1        1.0000    0.62740   0.64530   0.86370   Biso      1.000     H          0.080089  
         H2        1.0000    0.62680   0.06170   0.51710   Biso      1.000     H          0.13028299999999998           
         H3        1.0000    0.14610   0.16780   0.67530   Biso      1.000     H          0.085314  
         H4        1.0000    0.82690   0.65720   0.07700   Biso      1.000     H          0.123297  
         H5        1.0000    0.84910   0.54020   0.93600   Biso      1.000     H          0.09414299999999999           
         H6        1.0000    0.29340   0.66640   0.06030   Biso      1.000     H          0.12243399999999999           
         H7        1.0000    0.09140   0.80650   0.95170   Biso      1.000     H          0.133155  
         H8        1.0000    0.38810   0.31510   0.53560   Biso      1.000     H          0.096701  
         H9        1.0000    0.41570   0.19350   0.40400   Biso      1.000     H          0.126619  
         H10       1.0000    0.15570   0.04530   0.53730   Biso      1.000     H          0.13238699999999998           
         H11       1.0000    0.94510   0.18000   0.45040   Biso      1.000     H          0.12193699999999999           
         H12       1.0000    0.62360   0.17870   0.66430   Biso      1.000     H          0.086185  
         H13       1.0000    0.09910   0.68720   0.80920   Biso      1.000     H          0.085988  
         H14       1.0000    0.37460   0.26790   0.99740   Biso      1.000     H          0.129049  
         H15       1.0000    0.62540   0.76790   0.00260   Biso      1.000     H          0.12905   
         H16       1.0000    0.92760   0.29650   0.59280   Biso      1.000     H          0.093947  
         H17       1.0000    0.90090   0.18720   0.19080   Biso      1.000     H          0.085988  
         H18       1.0000    0.58430   0.69350   0.59600   Biso      1.000     H          0.126619  
         H19       1.0000    0.61190   0.81510   0.46440   Biso      1.000     H          0.096702  
         H20       1.0000    0.90860   0.30650   0.04830   Biso      1.000     H          0.133155  
         H21       1.0000    0.15090   0.04020   0.06400   Biso      1.000     H          0.09414299999999999           
         H22       1.0000    0.70660   0.16640   0.93970   Biso      1.000     H          0.12243399999999999           
         H23       1.0000    0.17310   0.15720   0.92300   Biso      1.000     H          0.123296  
         H24       1.0000    0.85390   0.66780   0.32470   Biso      1.000     H          0.085314  
         H25       1.0000    0.37640   0.67870   0.33570   Biso      1.000     H          0.086185  
         H26       1.0000    0.37260   0.14530   0.13630   Biso      1.000     H          0.080089  
         H27       1.0000    0.37320   0.56170   0.48290   Biso      1.000     H          0.13028399999999998           
         H28       1.0000    0.05490   0.68000   0.54960   Biso      1.000     H          0.12193699999999999           
         H29       1.0000    0.07240   0.79650   0.40720   Biso      1.000     H          0.093947  
         H30       1.0000    0.68900   0.04330   0.07350   Biso      1.000     H          0.09278600000000001           
         H31       1.0000    0.31100   0.54330   0.92650   Biso      1.000     H          0.09278600000000001           
         H32       1.0000    0.84430   0.54530   0.46270   Biso      1.000     H          0.132388  
         Li1       1.0000    0.46960   0.48260   0.74430   Biso      1.000     Li          0.778643  
         Li2       1.0000    0.72640   0.85830   0.25210   Biso      1.000     Li          0.778359  
         Li3       1.0000    0.21800   0.86010   0.23410   Biso      1.000     Li          0.777085  
         Li4       1.0000    0.02800   0.98950   0.26080   Biso      1.000     Li          0.7792    
         Li5       1.0000    0.53040   0.98260   0.25570   Biso      1.000     Li          0.778643  
         Li6       1.0000    0.97200   0.48950   0.73920   Biso      1.000     Li          0.7792    
         Li7       1.0000    0.78200   0.36010   0.76590   Biso      1.000     Li          0.777085  
         Li8       1.0000    0.27360   0.35830   0.74790   Biso      1.000     Li          0.778359  
         N1        1.0000    0.22483   0.74822   0.35595   Biso      1.000     N          -0.33471300000000004          
         N2        1.0000    0.26505   0.25282   0.61849   Biso      1.000     N          -0.331355           
         N3        1.0000    0.97483   0.60256   0.85860   Biso      1.000     N          -0.33165900000000004          
         N4        1.0000    0.77517   0.24822   0.64405   Biso      1.000     N          -0.33471300000000004          
         N5        1.0000    0.73495   0.75282   0.38151   Biso      1.000     N          -0.331355           
         N6        1.0000    0.46898   0.58346   0.88031   Biso      1.000     N          -0.327729           
         N7        1.0000    0.02517   0.10256   0.14140   Biso      1.000     N          -0.33165900000000004          
         N8        1.0000    0.53102   0.08346   0.11969   Biso      1.000     N          -0.327729           
         O1        1.0000    0.03449   0.87736   0.15671   Biso      1.000     O          -0.712854           
         O2        1.0000    0.21223   0.97123   0.33474   Biso      1.000     O          -0.724175           
         O3        1.0000    0.96551   0.37736   0.84329   Biso      1.000     O          -0.712854           
         O4        1.0000    0.78777   0.47123   0.66526   Biso      1.000     O          -0.724175           
         O5        1.0000    0.45904   0.36166   0.82628   Biso      1.000     O          -0.711924           
         O6        1.0000    0.58918   0.51864   0.65581   Biso      1.000     O          -0.660716           
         O7        1.0000    0.90765   0.02098   0.35168   Biso      1.000     O          -0.6679390000000001           
         O8        1.0000    0.41082   0.01864   0.34419   Biso      1.000     O          -0.660716           
         O9        1.0000    0.09235   0.52098   0.64832   Biso      1.000     O          -0.6679390000000001           
         O10       1.0000    0.66880   0.33885   0.87327   Biso      1.000     O          -0.675349           
         O11       1.0000    0.33120   0.83885   0.12673   Biso      1.000     O          -0.675349           
         O12       1.0000    0.29066   0.47426   0.65723   Biso      1.000     O          -0.72578  
         O13       1.0000    0.16300   0.32892   0.85167   Biso      1.000     O          -0.666044           
         O14       1.0000    0.70934   0.97426   0.34277   Biso      1.000     O          -0.72578  
         O15       1.0000    0.83700   0.82892   0.14833   Biso      1.000     O          -0.666044           
         O16       1.0000    0.54096   0.86166   0.17372   Biso      1.000     O          -0.711924 