
##########################################################################
#               Crystallographic Information Format file
#               Produced by PyCifRW module
#
#  This is a CIF file.  CIF has been adopted by the International
#  Union of Crystallography as the standard for data archiving and
#  transmission.
#
#  For information on this file format, follow the CIF links at
#  http://www.iucr.org
##########################################################################

data_image0

_cell_length_a                          5.2038
_cell_length_b                          14.516
_cell_length_c                          10.295
_cell_angle_alpha                       90
_cell_angle_beta                        96.14
_cell_angle_gamma                       90
_symmetry_space_group_name_H-M          'P 1'
_symmetry_int_tables_number             1
loop_
  _symmetry_equiv_pos_as_xyz
         'x, y, z' 
loop_
  _atom_site_label
  _atom_site_occupancy
  _atom_site_fract_x
  _atom_site_fract_y
  _atom_site_fract_z
  _atom_site_thermal_displace_type
  _atom_site_B_iso_or_equiv
  _atom_site_type_symbol
  _atom_site_charge
         C1        1.0000    0.77500   0.61130   0.87560   Biso      1.000     C          0.646203  
         C2        1.0000    0.67300   0.84150   0.70560   Biso      1.000     C          0.077655  
         C3        1.0000    0.67900   0.25240   0.36950   Biso      1.000     C          0.081995  
         C4        1.0000    0.42100   0.67560   0.71320   Biso      1.000     C          -0.14882599999999999          
         C5        1.0000    0.32100   0.75240   0.13050   Biso      1.000     C          0.08199400000000001           
         C6        1.0000    0.76900   0.77010   0.78990   Biso      1.000     C          -0.153271           
         C7        1.0000    0.67300   0.65850   0.20560   Biso      1.000     C          0.077651  
         C8        1.0000    0.65900   0.68800   0.79140   Biso      1.000     C          0.005966  
         C9        1.0000    0.32100   0.74760   0.63050   Biso      1.000     C          0.081995  
         C10       1.0000    0.22500   0.38870   0.12440   Biso      1.000     C          0.646203  
         C11       1.0000    0.23100   0.22990   0.21010   Biso      1.000     C          -0.15327000000000002          
         C12       1.0000    0.65900   0.81200   0.29140   Biso      1.000     C          0.005938000000000001          
         C13       1.0000    0.57900   0.32440   0.28680   Biso      1.000     C          -0.148827           
         C14       1.0000    0.32700   0.34150   0.79440   Biso      1.000     C          0.077655  
         C15       1.0000    0.76900   0.72990   0.28990   Biso      1.000     C          -0.15324000000000002          
         C16       1.0000    0.57900   0.17560   0.78680   Biso      1.000     C          -0.14882599999999999          
         C17       1.0000    0.23100   0.27010   0.71010   Biso      1.000     C          -0.153271           
         C18       1.0000    0.22500   0.11130   0.62440   Biso      1.000     C          0.646203  
         C19       1.0000    0.34100   0.18800   0.70860   Biso      1.000     C          0.005966  
         C20       1.0000    0.42100   0.82440   0.21320   Biso      1.000     C          -0.148824           
         C21       1.0000    0.67900   0.24760   0.86950   Biso      1.000     C          0.081995  
         C22       1.0000    0.32700   0.15850   0.29440   Biso      1.000     C          0.077654  
         C23       1.0000    0.77500   0.88870   0.37560   Biso      1.000     C          0.646205  
         C24       1.0000    0.34100   0.31200   0.20860   Biso      1.000     C          0.005966  
         H1        1.0000    0.83370   0.26230   0.42570   Biso      1.000     H          0.08683400000000001           
         H2        1.0000    0.92010   0.71860   0.34820   Biso      1.000     H          0.115593  
         H3        1.0000    0.16630   0.76230   0.07430   Biso      1.000     H          0.08683400000000001           
         H4        1.0000    0.32880   0.88070   0.21640   Biso      1.000     H          0.125826  
         H5        1.0000    0.76580   0.60250   0.20060   Biso      1.000     H          0.11071700000000001           
         H6        1.0000    0.76580   0.89750   0.70060   Biso      1.000     H          0.11071700000000001           
         H7        1.0000    0.32880   0.61930   0.71640   Biso      1.000     H          0.125826  
         H8        1.0000    0.92010   0.78140   0.84820   Biso      1.000     H          0.115595  
         H9        1.0000    0.16630   0.73770   0.57430   Biso      1.000     H          0.08683400000000001           
         H10       1.0000    0.07990   0.21860   0.15180   Biso      1.000     H          0.115595  
         H11       1.0000    0.23420   0.39750   0.79940   Biso      1.000     H          0.11071700000000001           
         H12       1.0000    0.67120   0.11930   0.78360   Biso      1.000     H          0.125827  
         H13       1.0000    0.07990   0.28140   0.65180   Biso      1.000     H          0.115595  
         H14       1.0000    0.83370   0.23770   0.92570   Biso      1.000     H          0.08683400000000001           
         H15       1.0000    0.67120   0.38070   0.28360   Biso      1.000     H          0.125827  
         H16       1.0000    0.23420   0.10250   0.29940   Biso      1.000     H          0.11071700000000001           
         Li1       1.0000    0.31500   0.93430   0.50200   Biso      1.000     Li          0.775841  
         Li2       1.0000    0.68500   0.06570   0.49800   Biso      1.000     Li          0.775842  
         Li3       1.0000    0.68500   0.43430   0.99800   Biso      1.000     Li          0.775842  
         Li4       1.0000    0.31500   0.56570   0.00200   Biso      1.000     Li          0.775842  
         N1        1.0000    0.56400   0.17200   0.37090   Biso      1.000     N          -0.333496           
         N2        1.0000    0.43600   0.67200   0.12910   Biso      1.000     N          -0.333496           
         N3        1.0000    0.43600   0.82800   0.62910   Biso      1.000     N          -0.333496           
         N4        1.0000    0.56400   0.32800   0.87090   Biso      1.000     N          -0.333496           
         O1        1.0000    0.38700   0.45370   0.09410   Biso      1.000     O          -0.792624           
         O2        1.0000    0.00400   0.38470   0.08390   Biso      1.000     O          -0.598416           
         O3        1.0000    0.99600   0.88470   0.41610   Biso      1.000     O          -0.598417           
         O4        1.0000    0.61300   0.95370   0.40590   Biso      1.000     O          -0.792624           
         O5        1.0000    0.99600   0.61530   0.91610   Biso      1.000     O          -0.598416           
         O6        1.0000    0.61300   0.54630   0.90590   Biso      1.000     O          -0.792624           
         O7        1.0000    0.00400   0.11530   0.58390   Biso      1.000     O          -0.598416           
         O8        1.0000    0.38700   0.04630   0.59410   Biso      1.000     O          -0.792624 