
##########################################################################
#               Crystallographic Information Format file
#               Produced by PyCifRW module
#
#  This is a CIF file.  CIF has been adopted by the International
#  Union of Crystallography as the standard for data archiving and
#  transmission.
#
#  For information on this file format, follow the CIF links at
#  http://www.iucr.org
##########################################################################

data_image0

_cell_length_a                          7.6118
_cell_length_b                          9.8253
_cell_length_c                          14.748
_cell_angle_alpha                       90
_cell_angle_beta                        98.14
_cell_angle_gamma                       90
_symmetry_space_group_name_H-M          'P 1'
_symmetry_int_tables_number             1
loop_
  _symmetry_equiv_pos_as_xyz
         'x, y, z' 
loop_
  _atom_site_label
  _atom_site_occupancy
  _atom_site_fract_x
  _atom_site_fract_y
  _atom_site_fract_z
  _atom_site_thermal_displace_type
  _atom_site_B_iso_or_equiv
  _atom_site_type_symbol
  _atom_site_charge
         C1        1.0000    0.55160   0.28280   0.83520   Biso      1.000     C          -0.08328200000000001          
         C2        1.0000    0.91470   0.08410   0.75130   Biso      1.000     C          -0.077417           
         C3        1.0000    0.97660   0.14840   0.83230   Biso      1.000     C          0.077144  
         C4        1.0000    0.07630   0.33490   0.76210   Biso      1.000     C          0.071447  
         C5        1.0000    0.82870   0.94200   0.75230   Biso      1.000     C          0.7295659999999999  
         C6        1.0000    0.20170   0.68660   0.78870   Biso      1.000     C          0.532148  
         C7        1.0000    0.44790   0.08140   0.91030   Biso      1.000     C          0.701965  
         C8        1.0000    0.48500   0.15710   0.82660   Biso      1.000     C          -0.095837           
         C9        1.0000    0.42110   0.11030   0.73870   Biso      1.000     C          0.11333900000000001           
         C10       1.0000    0.52720   0.28850   0.66480   Biso      1.000     C          0.047667  
         C11       1.0000    0.96360   0.13940   0.67650   Biso      1.000     C          -0.054672000000000005         
         C12       1.0000    0.56710   0.35450   0.74880   Biso      1.000     C          -0.081335           
         C13       1.0000    0.93730   0.85150   0.40450   Biso      1.000     C          0.674569  
         C14       1.0000    0.95680   0.77170   0.32230   Biso      1.000     C          -0.090709           
         C15       1.0000    0.03640   0.63940   0.32350   Biso      1.000     C          -0.054705           
         C16       1.0000    0.08530   0.58410   0.24870   Biso      1.000     C          -0.07738300000000001          
         C17       1.0000    0.02340   0.64840   0.16770   Biso      1.000     C          0.077141  
         C18       1.0000    0.92370   0.83490   0.23790   Biso      1.000     C          0.07145   
         C19       1.0000    0.17130   0.44200   0.24770   Biso      1.000     C          0.729563  
         C20       1.0000    0.71620   0.25060   0.29010   Biso      1.000     C          0.503113  
         C21       1.0000    0.79830   0.18660   0.21130   Biso      1.000     C          0.532149  
         C22       1.0000    0.64720   0.48600   0.75350   Biso      1.000     C          0.702659  
         C23       1.0000    0.04320   0.27170   0.67770   Biso      1.000     C          -0.090709           
         C24       1.0000    0.28380   0.75060   0.70990   Biso      1.000     C          0.503113  
         C25       1.0000    0.35280   0.98600   0.24650   Biso      1.000     C          0.702659  
         C26       1.0000    0.44840   0.78280   0.16480   Biso      1.000     C          -0.08328200000000001          
         C27       1.0000    0.43290   0.85450   0.25120   Biso      1.000     C          -0.081336           
         C28       1.0000    0.47280   0.78850   0.33520   Biso      1.000     C          0.047669  
         C29       1.0000    0.57890   0.61030   0.26130   Biso      1.000     C          0.11333900000000001           
         C30       1.0000    0.51500   0.65710   0.17340   Biso      1.000     C          -0.095837           
         C31       1.0000    0.55210   0.58140   0.08970   Biso      1.000     C          0.701965  
         C32       1.0000    0.06270   0.35150   0.59550   Biso      1.000     C          0.674569  
         H1        1.0000    0.65300   0.53460   0.26510   Biso      1.000     H          0.087128  
         H2        1.0000    0.45080   0.82900   0.38950   Biso      1.000     H          0.118869  
         H3        1.0000    0.94560   0.09090   0.62180   Biso      1.000     H          0.12488099999999999           
         H4        1.0000    0.95240   0.10500   0.88510   Biso      1.000     H          0.090597  
         H5        1.0000    0.10650   0.42670   0.76490   Biso      1.000     H          0.10903199999999999           
         H6        1.0000    0.34700   0.03460   0.73490   Biso      1.000     H          0.087128  
         H7        1.0000    0.41390   0.82280   0.10790   Biso      1.000     H          0.13711900000000002           
         H8        1.0000    0.54920   0.32900   0.61050   Biso      1.000     H          0.118869  
         H9        1.0000    0.58610   0.32280   0.89210   Biso      1.000     H          0.13711900000000002           
         H10       1.0000    0.05440   0.59090   0.37820   Biso      1.000     H          0.124884  
         H11       1.0000    0.04760   0.60500   0.11490   Biso      1.000     H          0.090597  
         H12       1.0000    0.89350   0.92670   0.23510   Biso      1.000     H          0.10903099999999999           
         N1        1.0000    0.93480   0.76260   0.15500   Biso      1.000     N          -0.284092           
         N2        1.0000    0.45250   0.15860   0.66570   Biso      1.000     N          -0.283887           
         N3        1.0000    0.54750   0.65860   0.33430   Biso      1.000     N          -0.283887           
         N4        1.0000    0.06520   0.26260   0.84500   Biso      1.000     N          -0.284092           
         O1        1.0000    0.54380   0.27790   0.27020   Biso      1.000     O          -0.664478           
         O2        1.0000    0.22470   0.40350   0.17970   Biso      1.000     O          -0.6775399999999999           
         O3        1.0000    0.15800   0.37150   0.31810   Biso      1.000     O          -0.71309  
         O4        1.0000    0.19820   0.76770   0.63590   Biso      1.000     O          -0.5409390000000001           
         O5        1.0000    0.91930   0.98220   0.39760   Biso      1.000     O          -0.674428           
         O6        1.0000    0.94670   0.78340   0.48150   Biso      1.000     O          -0.718575           
         O7        1.0000    0.65610   0.55750   0.82420   Biso      1.000     O          -0.669968           
         O8        1.0000    0.73240   0.51870   0.68550   Biso      1.000     O          -0.746185           
         O9        1.0000    0.41610   0.95540   0.89740   Biso      1.000     O          -0.734053           
         O10       1.0000    0.44250   0.13030   0.98110   Biso      1.000     O          -0.651993           
         O11       1.0000    0.04810   0.65260   0.77120   Biso      1.000     O          -0.581737           
         O12       1.0000    0.69490   0.17430   0.13520   Biso      1.000     O          -0.625555           
         O13       1.0000    0.30510   0.67430   0.86480   Biso      1.000     O          -0.625555           
         O14       1.0000    0.95190   0.15260   0.22880   Biso      1.000     O          -0.581737           
         O15       1.0000    0.84200   0.87150   0.68190   Biso      1.000     O          -0.71309  
         O16       1.0000    0.77530   0.90350   0.82030   Biso      1.000     O          -0.6775399999999999           
         O17       1.0000    0.08070   0.48220   0.60240   Biso      1.000     O          -0.674428           
         O18       1.0000    0.05330   0.28340   0.51850   Biso      1.000     O          -0.718576           
         O19       1.0000    0.34390   0.05750   0.17580   Biso      1.000     O          -0.669968           
         O20       1.0000    0.26760   0.01870   0.31450   Biso      1.000     O          -0.746185           
         O21       1.0000    0.58390   0.45540   0.10260   Biso      1.000     O          -0.734053           
         O22       1.0000    0.55750   0.63030   0.01890   Biso      1.000     O          -0.651993           
         O23       1.0000    0.80180   0.26770   0.36410   Biso      1.000     O          -0.5409390000000001           
         O24       1.0000    0.45620   0.77790   0.72980   Biso      1.000     O          -0.664478           
         Tb1       1.0000    0.89873   0.67132   0.61071   Biso      1.000     Tb          2.121236  
         Tb2       1.0000    0.39879   0.26217   0.11078   Biso      1.000     Tb          2.107291  
         Tb3       1.0000    0.10127   0.17132   0.38929   Biso      1.000     Tb          2.121237  
         Tb4       1.0000    0.60121   0.76217   0.88922   Biso      1.000     Tb          2.107291 