
##########################################################################
#               Crystallographic Information Format file
#               Produced by PyCifRW module
#
#  This is a CIF file.  CIF has been adopted by the International
#  Union of Crystallography as the standard for data archiving and
#  transmission.
#
#  For information on this file format, follow the CIF links at
#  http://www.iucr.org
##########################################################################

data_image0

_cell_length_a                          3.689
_cell_length_b                          17.64
_cell_length_c                          12.385
_cell_angle_alpha                       91.247
_cell_angle_beta                        90
_cell_angle_gamma                       90
_symmetry_space_group_name_H-M          'P 1'
_symmetry_int_tables_number             1
loop_
  _symmetry_equiv_pos_as_xyz
         'x, y, z' 
loop_
  _atom_site_label
  _atom_site_occupancy
  _atom_site_fract_x
  _atom_site_fract_y
  _atom_site_fract_z
  _atom_site_thermal_displace_type
  _atom_site_B_iso_or_equiv
  _atom_site_type_symbol
  _atom_site_charge
         C1        1.0000    0.58500   0.66400   0.78100   Biso      1.000     C          0.000241  
         C2        1.0000    0.14000   0.27400   0.28200   Biso      1.000     C          -0.042361           
         C3        1.0000    0.98000   0.73800   0.04100   Biso      1.000     C          0.50133   
         C4        1.0000    0.33000   0.27400   0.05900   Biso      1.000     C          -0.047372000000000004         
         C5        1.0000    0.85400   0.78700   0.75900   Biso      1.000     C          -0.047553           
         C6        1.0000    0.87000   0.79500   0.87000   Biso      1.000     C          -0.00248  
         C7        1.0000    0.73000   0.66300   0.88600   Biso      1.000     C          -0.04306  
         C8        1.0000    0.83000   0.72600   0.94100   Biso      1.000     C          -0.047338           
         C9        1.0000    0.77000   0.86200   0.69700   Biso      1.000     C          0.571333  
         C10       1.0000    0.54500   0.58800   0.73300   Biso      1.000     C          0.45691499999999996           
         C11       1.0000    0.64000   0.72600   0.71800   Biso      1.000     C          -0.042354           
         C12       1.0000    0.23000   0.33700   0.11400   Biso      1.000     C          -0.043026999999999996         
         C13       1.0000    0.37000   0.20500   0.13000   Biso      1.000     C          -0.00248  
         C14       1.0000    0.35400   0.21300   0.24100   Biso      1.000     C          -0.047546           
         C15       1.0000    0.08500   0.33600   0.21900   Biso      1.000     C          0.000241  
         C16       1.0000    0.48000   0.26200   0.95900   Biso      1.000     C          0.501324  
         C17       1.0000    0.04500   0.41200   0.26700   Biso      1.000     C          0.45691400000000004           
         C18       1.0000    0.27000   0.13800   0.30300   Biso      1.000     C          0.571326  
         Eu1       1.0000    0.75000   0.90510   0.44850   Biso      1.000     Eu          1.12303   
         Eu2       1.0000    0.25000   0.45920   0.63120   Biso      1.000     Eu          1.201971  
         Eu3       1.0000    0.75000   0.26730   0.70950   Biso      1.000     Eu          1.213657  
         Eu4       1.0000    0.25000   0.09490   0.55150   Biso      1.000     Eu          1.12303   
         Eu5       1.0000    0.75000   0.54080   0.36880   Biso      1.000     Eu          1.201968  
         Eu6       1.0000    0.25000   0.73270   0.29050   Biso      1.000     Eu          1.213651  
         H1        1.0000    0.01656   0.27105   0.36619   Biso      1.000     H          0.132327  
         H2        1.0000    0.91337   0.85358   0.90853   Biso      1.000     H          0.137309  
         H3        1.0000    0.76107   0.60516   0.92425   Biso      1.000     H          0.11528599999999999           
         H4        1.0000    0.51656   0.72895   0.63381   Biso      1.000     H          0.132327  
         H5        1.0000    0.41337   0.14642   0.09147   Biso      1.000     H          0.13731   
         H6        1.0000    0.26107   0.39484   0.07575   Biso      1.000     H          0.115284  
         O1        1.0000    0.80500   0.54300   0.70100   Biso      1.000     O          -0.37412  
         O2        1.0000    0.73500   0.04800   0.44600   Biso      1.000     O          -0.44698699999999997          
         O3        1.0000    0.25000   0.59600   0.28100   Biso      1.000     O          -0.513867           
         O4        1.0000    0.75500   0.82900   0.28400   Biso      1.000     O          -0.42650200000000005          
         O5        1.0000    0.10500   0.08800   0.24000   Biso      1.000     O          -0.326029           
         O6        1.0000    0.29500   0.28600   0.87000   Biso      1.000     O          -0.43319300000000005          
         O7        1.0000    0.75000   0.43900   0.50400   Biso      1.000     O          -0.49924300000000005          
         O8        1.0000    0.78000   0.44700   0.22100   Biso      1.000     O          -0.385157           
         O9        1.0000    0.16000   0.15100   0.39100   Biso      1.000     O          -0.387455           
         O10       1.0000    0.69000   0.20600   0.92500   Biso      1.000     O          -0.342779           
         O11       1.0000    0.74000   0.05100   0.67800   Biso      1.000     O          -0.205262           
         O12       1.0000    0.75500   0.68500   0.39400   Biso      1.000     O          -0.514302           
         O13       1.0000    0.30500   0.45700   0.29900   Biso      1.000     O          -0.374121           
         O14       1.0000    0.73500   0.18700   0.54400   Biso      1.000     O          -0.41567600000000005          
         O15       1.0000    0.25500   0.17100   0.71600   Biso      1.000     O          -0.42651300000000003          
         O16       1.0000    0.75000   0.40400   0.71900   Biso      1.000     O          -0.5138699999999999           
         O17       1.0000    0.23500   0.95200   0.55400   Biso      1.000     O          -0.44699399999999995          
         O18       1.0000    0.60500   0.91200   0.76000   Biso      1.000     O          -0.326047           
         O19       1.0000    0.79500   0.71400   0.13000   Biso      1.000     O          -0.43319799999999997          
         O20       1.0000    0.25000   0.56100   0.49600   Biso      1.000     O          -0.499245           
         O21       1.0000    0.28000   0.55300   0.77900   Biso      1.000     O          -0.385153           
         O22       1.0000    0.66000   0.84900   0.60900   Biso      1.000     O          -0.38745300000000005          
         O23       1.0000    0.19000   0.79400   0.07500   Biso      1.000     O          -0.34279  
         O24       1.0000    0.24000   0.94900   0.32200   Biso      1.000     O          -0.20526999999999998          
         O25       1.0000    0.25500   0.31500   0.60600   Biso      1.000     O          -0.514304           
         O26       1.0000    0.23500   0.81300   0.45600   Biso      1.000     O          -0.41567600000000005 