
##########################################################################
#               Crystallographic Information Format file
#               Produced by PyCifRW module
#
#  This is a CIF file.  CIF has been adopted by the International
#  Union of Crystallography as the standard for data archiving and
#  transmission.
#
#  For information on this file format, follow the CIF links at
#  http://www.iucr.org
##########################################################################

data_image0

_cell_length_a                          9.599
_cell_length_b                          11.025
_cell_length_c                          12.571
_cell_angle_alpha                       86.328
_cell_angle_beta                        81.705
_cell_angle_gamma                       79.834
_symmetry_space_group_name_H-M          'P 1'
_symmetry_int_tables_number             1
loop_
  _symmetry_equiv_pos_as_xyz
         'x, y, z' 
loop_
  _atom_site_label
  _atom_site_occupancy
  _atom_site_fract_x
  _atom_site_fract_y
  _atom_site_fract_z
  _atom_site_thermal_displace_type
  _atom_site_B_iso_or_equiv
  _atom_site_type_symbol
  _atom_site_charge
         C1        1.0000    0.23130   0.91890   0.01000   Biso      1.000     C          -0.161727           
         C2        1.0000    0.76870   0.08110   0.99000   Biso      1.000     C          -0.161722           
         C3        1.0000    0.82160   0.02770   0.08080   Biso      1.000     C          -0.009858           
         C4        1.0000    0.88160   0.09420   0.14070   Biso      1.000     C          -0.131926           
         C5        1.0000    0.89470   0.21470   0.10730   Biso      1.000     C          0.122113  
         C6        1.0000    0.64050   0.33410   0.71990   Biso      1.000     C          0.263172  
         C7        1.0000    0.56890   0.33480   0.62260   Biso      1.000     C          0.060851  
         C8        1.0000    0.42910   0.38500   0.62410   Biso      1.000     C          -0.147607           
         C9        1.0000    0.36560   0.38500   0.53220   Biso      1.000     C          0.109304  
         C10       1.0000    0.57310   0.29610   0.43910   Biso      1.000     C          0.093891  
         C11       1.0000    0.64300   0.28790   0.52900   Biso      1.000     C          -0.177685           
         C12       1.0000    0.66230   0.10800   0.75910   Biso      1.000     C          0.225743  
         C13       1.0000    0.78260   0.03580   0.71170   Biso      1.000     C          -0.232736           
         C14       1.0000    0.77240   0.91670   0.68660   Biso      1.000     C          0.103637  
         C15       1.0000    0.53950   0.94180   0.75740   Biso      1.000     C          0.12239   
         C16       1.0000    0.53570   0.06340   0.78390   Biso      1.000     C          -0.192138           
         C17       1.0000    0.10530   0.78530   0.89270   Biso      1.000     C          0.122117  
         C18       1.0000    0.11840   0.90580   0.85930   Biso      1.000     C          -0.131961           
         C19       1.0000    0.46430   0.93660   0.21610   Biso      1.000     C          -0.192144           
         C20       1.0000    0.46050   0.05820   0.24260   Biso      1.000     C          0.122392  
         C21       1.0000    0.22760   0.08330   0.31340   Biso      1.000     C          0.103638  
         C22       1.0000    0.21740   0.96420   0.28830   Biso      1.000     C          -0.232742           
         C23       1.0000    0.33770   0.89200   0.24090   Biso      1.000     C          0.225753  
         C24       1.0000    0.35700   0.71210   0.47100   Biso      1.000     C          -0.177696           
         C25       1.0000    0.78320   0.19930   0.96040   Biso      1.000     C          0.151297  
         C26       1.0000    0.42690   0.70390   0.56090   Biso      1.000     C          0.093894  
         C27       1.0000    0.57090   0.61500   0.37590   Biso      1.000     C          -0.147625           
         C28       1.0000    0.43110   0.66520   0.37740   Biso      1.000     C          0.060875  
         C29       1.0000    0.35950   0.66590   0.28010   Biso      1.000     C          0.263171  
         C30       1.0000    0.26570   0.72870   0.13580   Biso      1.000     C          0.219717  
         C31       1.0000    0.21680   0.80070   0.03960   Biso      1.000     C          0.151296  
         C32       1.0000    0.17840   0.97230   0.91920   Biso      1.000     C          -0.009822           
         C33       1.0000    0.63440   0.61500   0.46780   Biso      1.000     C          0.109307  
         C34       1.0000    0.73430   0.27130   0.86420   Biso      1.000     C          0.219716  
         Cd1       1.0000    0.82571   0.48714   0.97605   Biso      1.000     Cd          0.80964   
         Cd2       1.0000    0.67544   0.64951   0.71479   Biso      1.000     Cd          0.741015  
         Cd3       1.0000    0.17429   0.51286   0.02395   Biso      1.000     Cd          0.809629  
         Cd4       1.0000    0.32456   0.35049   0.28521   Biso      1.000     Cd          0.741017  
         H1        1.0000    0.54440   0.09080   0.22670   Biso      1.000     H          0.087752  
         H2        1.0000    0.54710   0.88860   0.18360   Biso      1.000     H          0.152586  
         H3        1.0000    0.93820   0.26000   0.14880   Biso      1.000     H          0.089796  
         H4        1.0000    0.91410   0.06030   0.20410   Biso      1.000     H          0.117429  
         H5        1.0000    0.72340   0.03670   0.94910   Biso      1.000     H          0.11437   
         H6        1.0000    0.37650   0.41910   0.68640   Biso      1.000     H          0.136254  
         H7        1.0000    0.26890   0.41710   0.53490   Biso      1.000     H          0.093882  
         H8        1.0000    0.62520   0.26830   0.37440   Biso      1.000     H          0.088212  
         H9        1.0000    0.73840   0.25120   0.52560   Biso      1.000     H          0.129936  
         H10       1.0000    0.86860   0.06520   0.69660   Biso      1.000     H          0.150385  
         H11       1.0000    0.85210   0.86760   0.65100   Biso      1.000     H          0.099691  
         H12       1.0000    0.81570   0.94580   0.10040   Biso      1.000     H          0.109547  
         H13       1.0000    0.45560   0.90920   0.77330   Biso      1.000     H          0.087752  
         H14       1.0000    0.14790   0.13240   0.34900   Biso      1.000     H          0.099691  
         H15       1.0000    0.13140   0.93480   0.30340   Biso      1.000     H          0.150386  
         H16       1.0000    0.26160   0.74880   0.47440   Biso      1.000     H          0.129937  
         H17       1.0000    0.73110   0.58290   0.46510   Biso      1.000     H          0.093881  
         H18       1.0000    0.62350   0.58090   0.31360   Biso      1.000     H          0.136257  
         H19       1.0000    0.37480   0.73170   0.62560   Biso      1.000     H          0.088212  
         H20       1.0000    0.27660   0.96330   0.05090   Biso      1.000     H          0.11437   
         H21       1.0000    0.18430   0.05420   0.89960   Biso      1.000     H          0.109545  
         H22       1.0000    0.08590   0.93970   0.79590   Biso      1.000     H          0.117431  
         H23       1.0000    0.06180   0.74000   0.85120   Biso      1.000     H          0.089795  
         H24       1.0000    0.45290   0.11140   0.81640   Biso      1.000     H          0.152586  
         N1        1.0000    0.94080   0.56040   0.09970   Biso      1.000     N          -0.537348           
         N2        1.0000    0.32200   0.57150   0.24280   Biso      1.000     N          -0.201314           
         N3        1.0000    0.32800   0.76790   0.21580   Biso      1.000     N          -0.104888           
         N4        1.0000    0.56380   0.65850   0.55900   Biso      1.000     N          -0.21572  
         N5        1.0000    0.34750   0.12880   0.28800   Biso      1.000     N          -0.213253           
         N6        1.0000    0.26420   0.61260   0.15010   Biso      1.000     N          -0.192846           
         N7        1.0000    0.89780   0.64200   0.15440   Biso      1.000     N          0.468077  
         N8        1.0000    0.11180   0.38010   0.38650   Biso      1.000     N          -0.545153           
         N9        1.0000    0.24120   0.33690   0.11880   Biso      1.000     N          -0.565746           
         N10       1.0000    0.30790   0.25520   0.06430   Biso      1.000     N          0.448057  
         N11       1.0000    0.37180   0.17780   0.01430   Biso      1.000     N          -0.380104           
         N12       1.0000    0.44970   0.66710   0.81000   Biso      1.000     N          -0.477187           
         N13       1.0000    0.00510   0.38850   0.36010   Biso      1.000     N          0.490631  
         N14       1.0000    0.89250   0.39200   0.33610   Biso      1.000     N          -0.534116           
         N15       1.0000    0.15240   0.73240   0.98160   Biso      1.000     N          -0.260414           
         N16       1.0000    0.85720   0.72660   0.20860   Biso      1.000     N          -0.479991           
         N17       1.0000    0.62400   0.50640   0.09900   Biso      1.000     N          -0.485052           
         N18       1.0000    0.43620   0.34150   0.44100   Biso      1.000     N          -0.215719           
         N19       1.0000    0.55030   0.33290   0.19000   Biso      1.000     N          -0.477199           
         N20       1.0000    0.41250   0.58200   0.85610   Biso      1.000     N          0.447333  
         N21       1.0000    0.84760   0.26760   0.01840   Biso      1.000     N          -0.260414           
         N22       1.0000    0.73580   0.38740   0.84990   Biso      1.000     N          -0.192854           
         N23       1.0000    0.67800   0.42850   0.75720   Biso      1.000     N          -0.201308           
         N24       1.0000    0.67200   0.23210   0.78420   Biso      1.000     N          -0.104887           
         N25       1.0000    0.65250   0.87120   0.71200   Biso      1.000     N          -0.213252           
         N26       1.0000    0.05920   0.43960   0.90030   Biso      1.000     N          -0.53735  
         N27       1.0000    0.10220   0.35800   0.84560   Biso      1.000     N          0.468076  
         N28       1.0000    0.14280   0.27340   0.79140   Biso      1.000     N          -0.479991           
         N29       1.0000    0.75880   0.66310   0.88120   Biso      1.000     N          -0.565747           
         N30       1.0000    0.69210   0.74480   0.93570   Biso      1.000     N          0.448059  
         N31       1.0000    0.62820   0.82220   0.98570   Biso      1.000     N          -0.380104           
         N32       1.0000    0.88820   0.61990   0.61350   Biso      1.000     N          -0.545153           
         N33       1.0000    0.99490   0.61150   0.63990   Biso      1.000     N          0.490631  
         N34       1.0000    0.10750   0.60800   0.66390   Biso      1.000     N          -0.534116           
         N35       1.0000    0.58750   0.41800   0.14390   Biso      1.000     N          0.44744   
         N36       1.0000    0.37600   0.49360   0.90100   Biso      1.000     N          -0.484945 