
##########################################################################
#               Crystallographic Information Format file
#               Produced by PyCifRW module
#
#  This is a CIF file.  CIF has been adopted by the International
#  Union of Crystallography as the standard for data archiving and
#  transmission.
#
#  For information on this file format, follow the CIF links at
#  http://www.iucr.org
##########################################################################

data_image0

_cell_length_a                          9.805
_cell_length_b                          17.747
_cell_length_c                          21.359
_cell_angle_alpha                       103.13
_cell_angle_beta                        90
_cell_angle_gamma                       90
_symmetry_space_group_name_H-M          'P 1'
_symmetry_int_tables_number             1
loop_
  _symmetry_equiv_pos_as_xyz
         'x, y, z' 
loop_
  _atom_site_label
  _atom_site_occupancy
  _atom_site_fract_x
  _atom_site_fract_y
  _atom_site_fract_z
  _atom_site_thermal_displace_type
  _atom_site_B_iso_or_equiv
  _atom_site_type_symbol
  _atom_site_charge
         C1        1.0000    0.02980   0.91248   0.17906   Biso      1.000     C          -0.11953299999999999          
         C2        1.0000    0.35420   0.53901   0.78573   Biso      1.000     C          -0.107287           
         C3        1.0000    0.31120   0.46080   0.77585   Biso      1.000     C          -0.131053           
         C4        1.0000    0.52680   0.92275   0.62303   Biso      1.000     C          -0.120024           
         C5        1.0000    0.13440   0.75082   0.97567   Biso      1.000     C          -0.131636           
         C6        1.0000    0.47020   0.91248   0.67906   Biso      1.000     C          -0.119526           
         C7        1.0000    0.41740   0.55454   0.73323   Biso      1.000     C          -0.12098099999999999          
         C8        1.0000    0.38960   0.03175   0.65035   Biso      1.000     C          -0.117325           
         C9        1.0000    0.47480   0.62905   0.72480   Biso      1.000     C          0.686384  
         C10       1.0000    0.34250   0.41854   0.71594   Biso      1.000     C          -0.10846300000000002          
         C11       1.0000    0.13620   0.76589   0.91575   Biso      1.000     C          -0.09716699999999999          
         C12       1.0000    0.36590   0.75462   0.93289   Biso      1.000     C          -0.108958           
         C13       1.0000    0.50120   0.85223   0.71484   Biso      1.000     C          0.6464880000000001  
         C14       1.0000    0.31960   0.10623   0.64912   Biso      1.000     C          0.666491  
         C15       1.0000    0.48030   0.99140   0.60699   Biso      1.000     C          -0.120841           
         C16       1.0000    0.01750   0.74422   0.01808   Biso      1.000     C          0.660146  
         C17       1.0000    0.51560   0.75720   0.92758   Biso      1.000     C          0.6345029999999999  
         C18       1.0000    0.76920   0.23137   0.60835   Biso      1.000     C          -0.089496           
         C19       1.0000    0.63620   0.23411   0.58425   Biso      1.000     C          -0.097174           
         C20       1.0000    0.85420   0.46099   0.71427   Biso      1.000     C          -0.107287           
         C21       1.0000    0.81120   0.53920   0.72415   Biso      1.000     C          -0.131053           
         C22       1.0000    0.30370   0.33699   0.68630   Biso      1.000     C          0.6613640000000001  
         C23       1.0000    0.02680   0.07725   0.87697   Biso      1.000     C          -0.120024           
         C24       1.0000    0.26920   0.76863   0.89165   Biso      1.000     C          -0.08948300000000001          
         C25       1.0000    0.48250   0.74422   0.51808   Biso      1.000     C          0.660146  
         C26       1.0000    0.68040   0.89377   0.35088   Biso      1.000     C          0.6664899999999999  
         C27       1.0000    0.51970   0.00860   0.39301   Biso      1.000     C          -0.120851           
         C28       1.0000    0.98250   0.25578   0.98192   Biso      1.000     C          0.660146  
         C29       1.0000    0.48440   0.24280   0.07242   Biso      1.000     C          0.6345029999999999  
         C30       1.0000    0.23080   0.76863   0.39165   Biso      1.000     C          -0.089496           
         C31       1.0000    0.36380   0.76589   0.41575   Biso      1.000     C          -0.097174           
         C32       1.0000    0.14580   0.53901   0.28573   Biso      1.000     C          -0.107287           
         C33       1.0000    0.18880   0.46080   0.27585   Biso      1.000     C          -0.131053           
         C34       1.0000    0.97320   0.92275   0.12303   Biso      1.000     C          -0.12001600000000001          
         C35       1.0000    0.98440   0.75720   0.42758   Biso      1.000     C          0.634501  
         C36       1.0000    0.36560   0.75082   0.47567   Biso      1.000     C          -0.131628           
         C37       1.0000    0.08260   0.55454   0.23323   Biso      1.000     C          -0.12098099999999999          
         C38       1.0000    0.11040   0.03175   0.15035   Biso      1.000     C          -0.117325           
         C39       1.0000    0.02520   0.62905   0.22480   Biso      1.000     C          0.686384  
         C40       1.0000    0.15750   0.41854   0.21594   Biso      1.000     C          -0.10846300000000002          
         C41       1.0000    0.13410   0.75462   0.43289   Biso      1.000     C          -0.10894300000000001          
         C42       1.0000    0.19630   0.33699   0.18630   Biso      1.000     C          0.6613640000000001  
         C43       1.0000    0.99880   0.85223   0.21484   Biso      1.000     C          0.646489  
         C44       1.0000    0.18040   0.10623   0.14912   Biso      1.000     C          0.666491  
         C45       1.0000    0.01970   0.99140   0.10699   Biso      1.000     C          -0.120842           
         C46       1.0000    0.63410   0.24538   0.06711   Biso      1.000     C          -0.108958           
         C47       1.0000    0.63440   0.24918   0.52433   Biso      1.000     C          -0.131628           
         C48       1.0000    0.97020   0.08752   0.82094   Biso      1.000     C          -0.119526           
         C49       1.0000    0.91740   0.44546   0.76677   Biso      1.000     C          -0.12098099999999999          
         C50       1.0000    0.73080   0.23137   0.10835   Biso      1.000     C          -0.089482           
         C51       1.0000    0.86380   0.23411   0.08425   Biso      1.000     C          -0.097175           
         C52       1.0000    0.64580   0.46099   0.21427   Biso      1.000     C          -0.107287           
         C53       1.0000    0.68880   0.53920   0.22415   Biso      1.000     C          -0.131053           
         C54       1.0000    0.47320   0.07725   0.37697   Biso      1.000     C          -0.120022           
         C55       1.0000    0.86560   0.24918   0.02433   Biso      1.000     C          -0.131627           
         C56       1.0000    0.52980   0.08752   0.32094   Biso      1.000     C          -0.119526           
         C57       1.0000    0.58260   0.44546   0.26677   Biso      1.000     C          -0.12098099999999999          
         C58       1.0000    0.61040   0.96825   0.34965   Biso      1.000     C          -0.117315           
         C59       1.0000    0.52520   0.37095   0.27520   Biso      1.000     C          0.686384  
         C60       1.0000    0.65750   0.58146   0.28406   Biso      1.000     C          -0.10846300000000002          
         C61       1.0000    0.49880   0.14777   0.28516   Biso      1.000     C          0.6464880000000001  
         C62       1.0000    0.69630   0.66301   0.31370   Biso      1.000     C          0.6613640000000001  
         C63       1.0000    0.88960   0.96825   0.84965   Biso      1.000     C          -0.117325           
         C64       1.0000    0.97480   0.37095   0.77520   Biso      1.000     C          0.686384  
         C65       1.0000    0.84250   0.58146   0.78406   Biso      1.000     C          -0.10846300000000002          
         C66       1.0000    0.86590   0.24538   0.56711   Biso      1.000     C          -0.10894300000000001          
         C67       1.0000    0.80370   0.66301   0.81370   Biso      1.000     C          0.6613640000000001  
         C68       1.0000    0.00120   0.14777   0.78516   Biso      1.000     C          0.6464880000000001  
         C69       1.0000    0.81960   0.89377   0.85088   Biso      1.000     C          0.666491  
         C70       1.0000    0.98030   0.00860   0.89301   Biso      1.000     C          -0.120841           
         C71       1.0000    0.51750   0.25578   0.48192   Biso      1.000     C          0.660146  
         C72       1.0000    0.01560   0.24280   0.57242   Biso      1.000     C          0.634501  
         H1        1.0000    0.73340   0.55940   0.19320   Biso      1.000     H          0.11639200000000001           
         H2        1.0000    0.71140   0.22110   0.14820   Biso      1.000     H          0.149289  
         H3        1.0000    0.00860   0.99260   0.92950   Biso      1.000     H          0.129851  
         H4        1.0000    0.08860   0.11140   0.90160   Biso      1.000     H          0.119707  
         H5        1.0000    0.76660   0.55940   0.69320   Biso      1.000     H          0.11639200000000001           
         H6        1.0000    0.84060   0.42430   0.67610   Biso      1.000     H          0.133846  
         H7        1.0000    0.55800   0.22650   0.60670   Biso      1.000     H          0.136963  
         H8        1.0000    0.78860   0.22110   0.64820   Biso      1.000     H          0.14929   
         H9        1.0000    0.41140   0.11140   0.40160   Biso      1.000     H          0.119707  
         H10       1.0000    0.49140   0.99260   0.42950   Biso      1.000     H          0.129852  
         H11       1.0000    0.21140   0.77890   0.35180   Biso      1.000     H          0.14929   
         H12       1.0000    0.44200   0.77350   0.39330   Biso      1.000     H          0.136963  
         H13       1.0000    0.15940   0.57570   0.32390   Biso      1.000     H          0.133846  
         H14       1.0000    0.23340   0.44060   0.30680   Biso      1.000     H          0.11639200000000001           
         H15       1.0000    0.65940   0.42430   0.17610   Biso      1.000     H          0.133846  
         H16       1.0000    0.91140   0.88860   0.09840   Biso      1.000     H          0.119707  
         H17       1.0000    0.94200   0.22650   0.10670   Biso      1.000     H          0.136963  
         H18       1.0000    0.05800   0.77350   0.89330   Biso      1.000     H          0.136963  
         H19       1.0000    0.34060   0.57570   0.82390   Biso      1.000     H          0.133846  
         H20       1.0000    0.26660   0.44060   0.80680   Biso      1.000     H          0.11639200000000001           
         H21       1.0000    0.58860   0.88860   0.59840   Biso      1.000     H          0.119707  
         H22       1.0000    0.50860   0.00740   0.57050   Biso      1.000     H          0.129851  
         H23       1.0000    0.99140   0.00740   0.07050   Biso      1.000     H          0.129851  
         H24       1.0000    0.28860   0.77890   0.85180   Biso      1.000     H          0.149289  
         Mg1       1.0000    0.09839   0.22181   0.70888   Biso      1.000     Mg          1.374484  
         Mg2       1.0000    0.38771   0.30221   0.37833   Biso      1.000     Mg          1.521105  
         Mg3       1.0000    0.73089   0.78468   0.43839   Biso      1.000     Mg          1.4079139999999999  
         Mg4       1.0000    0.40161   0.22181   0.20888   Biso      1.000     Mg          1.374484  
         Mg5       1.0000    0.88771   0.69779   0.12167   Biso      1.000     Mg          1.521105  
         Mg6       1.0000    0.23089   0.21532   0.06161   Biso      1.000     Mg          1.4079139999999999  
         Mg7       1.0000    0.90161   0.77819   0.29112   Biso      1.000     Mg          1.374484  
         Mg8       1.0000    0.61229   0.69779   0.62167   Biso      1.000     Mg          1.521105  
         Mg9       1.0000    0.26911   0.21532   0.56161   Biso      1.000     Mg          1.4079139999999999  
         Mg10      1.0000    0.59839   0.77819   0.79112   Biso      1.000     Mg          1.374484  
         Mg11      1.0000    0.11229   0.30221   0.87833   Biso      1.000     Mg          1.521105  
         Mg12      1.0000    0.76911   0.78468   0.93839   Biso      1.000     Mg          1.4079139999999999  
         O1        1.0000    0.05053   0.85714   0.26923   Biso      1.000     O          -0.5803560000000001           
         O2        1.0000    0.97410   0.62894   0.17074   Biso      1.000     O          -0.752213           
         O3        1.0000    0.24639   0.29837   0.22343   Biso      1.000     O          -0.682433           
         O4        1.0000    0.03190   0.68591   0.27189   Biso      1.000     O          -0.621271           
         O5        1.0000    0.14322   0.13964   0.10615   Biso      1.000     O          -0.6901079999999999           
         O6        1.0000    0.32100   0.31387   0.62665   Biso      1.000     O          -0.670346           
         O7        1.0000    0.58746   0.73283   0.96694   Biso      1.000     O          -0.634709           
         O8        1.0000    0.56944   0.79015   0.88656   Biso      1.000     O          -0.7081930000000001           
         O9        1.0000    0.04388   0.72357   0.06940   Biso      1.000     O          -0.674614           
         O10       1.0000    0.89911   0.75954   0.00224   Biso      1.000     O          -0.698446           
         O11       1.0000    0.27026   0.12834   0.19102   Biso      1.000     O          -0.631787           
         O12       1.0000    0.91279   0.79915   0.19177   Biso      1.000     O          -0.7773399999999999           
         O13       1.0000    0.17900   0.31387   0.12665   Biso      1.000     O          -0.670346           
         O14       1.0000    0.64322   0.86036   0.39385   Biso      1.000     O          -0.6901079999999999           
         O15       1.0000    0.45612   0.72357   0.56940   Biso      1.000     O          -0.674614           
         O16       1.0000    0.93056   0.79015   0.38656   Biso      1.000     O          -0.7081930000000001           
         O17       1.0000    0.91254   0.73283   0.46694   Biso      1.000     O          -0.634709           
         O18       1.0000    0.41279   0.20085   0.30823   Biso      1.000     O          -0.7773399999999999           
         O19       1.0000    0.22974   0.12834   0.69102   Biso      1.000     O          -0.631787           
         O20       1.0000    0.53190   0.31409   0.22811   Biso      1.000     O          -0.621271           
         O21       1.0000    0.74639   0.70163   0.27657   Biso      1.000     O          -0.682433           
         O22       1.0000    0.47410   0.37106   0.32926   Biso      1.000     O          -0.752213           
         O23       1.0000    0.55053   0.14286   0.23077   Biso      1.000     O          -0.5803560000000001           
         O24       1.0000    0.77026   0.87166   0.30898   Biso      1.000     O          -0.631787           
         O25       1.0000    0.67900   0.68613   0.37335   Biso      1.000     O          -0.670346           
         O26       1.0000    0.10089   0.24046   0.99776   Biso      1.000     O          -0.698446           
         O27       1.0000    0.95612   0.27643   0.93060   Biso      1.000     O          -0.674614           
         O28       1.0000    0.60089   0.75954   0.50224   Biso      1.000     O          -0.698446           
         O29       1.0000    0.44947   0.85714   0.76923   Biso      1.000     O          -0.5803560000000001           
         O30       1.0000    0.58721   0.79915   0.69177   Biso      1.000     O          -0.7773399999999999           
         O31       1.0000    0.25361   0.29837   0.72343   Biso      1.000     O          -0.682433           
         O32       1.0000    0.08721   0.20085   0.80823   Biso      1.000     O          -0.7773399999999999           
         O33       1.0000    0.52590   0.62894   0.67074   Biso      1.000     O          -0.752213           
         O34       1.0000    0.96810   0.31409   0.72811   Biso      1.000     O          -0.621271           
         O35       1.0000    0.75361   0.70163   0.77657   Biso      1.000     O          -0.682433           
         O36       1.0000    0.02590   0.37106   0.82926   Biso      1.000     O          -0.752213           
         O37       1.0000    0.94947   0.14286   0.73077   Biso      1.000     O          -0.5803560000000001           
         O38       1.0000    0.72974   0.87166   0.80898   Biso      1.000     O          -0.631787           
         O39       1.0000    0.85678   0.86036   0.89385   Biso      1.000     O          -0.6901079999999999           
         O40       1.0000    0.39911   0.24046   0.49776   Biso      1.000     O          -0.698446           
         O41       1.0000    0.82100   0.68613   0.87335   Biso      1.000     O          -0.670346           
         O42       1.0000    0.46810   0.68591   0.77189   Biso      1.000     O          -0.621271           
         O43       1.0000    0.35678   0.13964   0.60615   Biso      1.000     O          -0.6901079999999999           
         O44       1.0000    0.41254   0.26717   0.03306   Biso      1.000     O          -0.634709           
         O45       1.0000    0.08746   0.26717   0.53306   Biso      1.000     O          -0.634709           
         O46       1.0000    0.06944   0.20985   0.61344   Biso      1.000     O          -0.7081930000000001           
         O47       1.0000    0.54388   0.27643   0.43060   Biso      1.000     O          -0.674614           
         O48       1.0000    0.43056   0.20985   0.11344   Biso      1.000     O          -0.7081930000000001           
         S1        1.0000    0.70443   0.26170   0.99790   Biso      1.000     S          0.151099  
         S2        1.0000    0.57400   0.52667   0.32895   Biso      1.000     S          0.132774  
         S3        1.0000    0.64030   0.01373   0.28801   Biso      1.000     S          0.16576   
         S4        1.0000    0.07400   0.47333   0.17105   Biso      1.000     S          0.132774  
         S5        1.0000    0.14030   0.98627   0.21199   Biso      1.000     S          0.165762  
         S6        1.0000    0.29557   0.73830   0.00210   Biso      1.000     S          0.151099  
         S7        1.0000    0.42600   0.47333   0.67105   Biso      1.000     S          0.132774  
         S8        1.0000    0.35970   0.98627   0.71199   Biso      1.000     S          0.165761  
         S9        1.0000    0.79557   0.26170   0.49790   Biso      1.000     S          0.151097  
         S10       1.0000    0.92600   0.52667   0.82895   Biso      1.000     S          0.132774  
         S11       1.0000    0.85970   0.01373   0.78801   Biso      1.000     S          0.165761  
         S12       1.0000    0.20443   0.73830   0.50210   Biso      1.000     S          0.151097 