
##########################################################################
#               Crystallographic Information Format file
#               Produced by PyCifRW module
#
#  This is a CIF file.  CIF has been adopted by the International
#  Union of Crystallography as the standard for data archiving and
#  transmission.
#
#  For information on this file format, follow the CIF links at
#  http://www.iucr.org
##########################################################################

data_image0

_cell_length_a                          10.0816
_cell_length_b                          10.7844
_cell_length_c                          13.7316
_cell_angle_alpha                       79.174
_cell_angle_beta                        78.771
_cell_angle_gamma                       86.355
_symmetry_space_group_name_H-M          'P 1'
_symmetry_int_tables_number             1
loop_
  _symmetry_equiv_pos_as_xyz
         'x, y, z' 
loop_
  _atom_site_label
  _atom_site_occupancy
  _atom_site_fract_x
  _atom_site_fract_y
  _atom_site_fract_z
  _atom_site_thermal_displace_type
  _atom_site_B_iso_or_equiv
  _atom_site_type_symbol
  _atom_site_charge
         C1        1.0000    0.48960   0.46450   0.68920   Biso      1.000     C          -0.126314           
         C2        1.0000    0.48280   0.25400   0.78160   Biso      1.000     C          -0.157296           
         C3        1.0000    0.47420   0.30510   0.86790   Biso      1.000     C          0.098986  
         C4        1.0000    0.48450   0.50670   0.77890   Biso      1.000     C          0.088836  
         C5        1.0000    0.49060   0.33640   0.69000   Biso      1.000     C          0.039628  
         C6        1.0000    0.49420   0.29350   0.59020   Biso      1.000     C          0.495397  
         C7        1.0000    0.20100   0.47260   0.22770   Biso      1.000     C          -0.024807           
         C8        1.0000    0.17770   0.41650   0.32910   Biso      1.000     C          -0.205617           
         C9        1.0000    0.16400   0.49090   0.40410   Biso      1.000     C          0.281079  
         C10       1.0000    0.16550   0.62230   0.37510   Biso      1.000     C          -0.22397  
         C11       1.0000    0.18330   0.67570   0.27500   Biso      1.000     C          0.002249  
         C12       1.0000    0.20410   0.60280   0.19960   Biso      1.000     C          -0.15177  
         C13       1.0000    0.18690   0.81630   0.24820   Biso      1.000     C          0.58718   
         C14       1.0000    0.23180   0.39260   0.14740   Biso      1.000     C          0.670237  
         C15       1.0000    0.16510   0.48310   0.58300   Biso      1.000     C          0.486611  
         C16       1.0000    0.15060   0.40000   0.68580   Biso      1.000     C          0.006523  
         C17       1.0000    0.14320   0.45970   0.76820   Biso      1.000     C          -0.161678           
         C18       1.0000    0.13850   0.38840   0.86170   Biso      1.000     C          0.076526  
         C19       1.0000    0.14480   0.20610   0.80040   Biso      1.000     C          0.087692  
         C20       1.0000    0.15050   0.27060   0.70370   Biso      1.000     C          -0.182155           
         C21       1.0000    0.76400   0.11290   0.33100   Biso      1.000     C          -0.001548           
         C22       1.0000    0.73510   0.14140   0.42890   Biso      1.000     C          -0.160284           
         C23       1.0000    0.60570   0.16030   0.47430   Biso      1.000     C          0.263947  
         C24       1.0000    0.49940   0.14790   0.42620   Biso      1.000     C          -0.191607           
         C25       1.0000    0.52620   0.12040   0.33020   Biso      1.000     C          -0.016305           
         C26       1.0000    0.65860   0.10320   0.28150   Biso      1.000     C          -0.14346  
         C27       1.0000    0.79900   0.52740   0.77230   Biso      1.000     C          -0.024806           
         C28       1.0000    0.90920   0.09810   0.28300   Biso      1.000     C          0.590312  
         C29       1.0000    0.82230   0.58350   0.67090   Biso      1.000     C          -0.205617           
         C30       1.0000    0.83450   0.37770   0.62490   Biso      1.000     C          -0.22397  
         C31       1.0000    0.51720   0.74600   0.21840   Biso      1.000     C          -0.157296           
         C32       1.0000    0.52580   0.69490   0.13210   Biso      1.000     C          0.098986  
         C33       1.0000    0.51550   0.49330   0.22110   Biso      1.000     C          0.088835  
         C34       1.0000    0.51040   0.53550   0.31080   Biso      1.000     C          -0.126313           
         C35       1.0000    0.50940   0.66360   0.31000   Biso      1.000     C          0.039628  
         C36       1.0000    0.50580   0.70650   0.40980   Biso      1.000     C          0.495396  
         C37       1.0000    0.59270   0.89160   0.71770   Biso      1.000     C          0.576763  
         C38       1.0000    0.09080   0.90190   0.71700   Biso      1.000     C          0.590312  
         C39       1.0000    0.34140   0.89680   0.71850   Biso      1.000     C          -0.143461           
         C40       1.0000    0.47380   0.87960   0.66980   Biso      1.000     C          -0.016309           
         C41       1.0000    0.50060   0.85210   0.57380   Biso      1.000     C          -0.191601           
         C42       1.0000    0.83600   0.50910   0.59590   Biso      1.000     C          0.281079  
         C43       1.0000    0.39430   0.83970   0.52570   Biso      1.000     C          0.263931  
         C44       1.0000    0.23600   0.88710   0.66900   Biso      1.000     C          -0.001549           
         C45       1.0000    0.84950   0.72940   0.29630   Biso      1.000     C          -0.182162           
         C46       1.0000    0.85520   0.79390   0.19960   Biso      1.000     C          0.087699  
         C47       1.0000    0.86150   0.61160   0.13830   Biso      1.000     C          0.076518  
         C48       1.0000    0.85680   0.54030   0.23180   Biso      1.000     C          -0.16167  
         C49       1.0000    0.84940   0.60000   0.31420   Biso      1.000     C          0.006524  
         C50       1.0000    0.83490   0.51690   0.41700   Biso      1.000     C          0.48661   
         C51       1.0000    0.76820   0.60740   0.85260   Biso      1.000     C          0.670238  
         C52       1.0000    0.81310   0.18370   0.75180   Biso      1.000     C          0.58718   
         C53       1.0000    0.79590   0.39720   0.80040   Biso      1.000     C          -0.15177  
         C54       1.0000    0.81670   0.32430   0.72500   Biso      1.000     C          0.00225   
         C55       1.0000    0.26490   0.85860   0.57110   Biso      1.000     C          -0.160266           
         C56       1.0000    0.40730   0.10840   0.28230   Biso      1.000     C          0.576763  
         Co1       1.0000    0.50000   0.50000   0.00000   Biso      1.000     Co          0.878353  
         Er1       1.0000    0.18176   0.07776   0.20374   Biso      1.000     Er          2.007566  
         Er2       1.0000    0.81824   0.92224   0.79626   Biso      1.000     Er          2.007567  
         H1        1.0000    0.88010   0.64630   0.48190   Biso      1.000     H          0.312026  
         H2        1.0000    0.46460   0.25030   0.92970   Biso      1.000     H          0.098346  
         H3        1.0000    0.48500   0.59320   0.77750   Biso      1.000     H          0.093413  
         H4        1.0000    0.49230   0.52170   0.62910   Biso      1.000     H          0.140277  
         H5        1.0000    0.67630   0.08530   0.21650   Biso      1.000     H          0.132193  
         H6        1.0000    0.41040   0.15800   0.45870   Biso      1.000     H          0.136911  
         H7        1.0000    0.80540   0.14730   0.46250   Biso      1.000     H          0.149645  
         H8        1.0000    0.15430   0.22700   0.65090   Biso      1.000     H          0.124569  
         H9        1.0000    0.14420   0.11840   0.81120   Biso      1.000     H          0.09239   
         H10       1.0000    0.13380   0.43020   0.91570   Biso      1.000     H          0.093992  
         H11       1.0000    0.14160   0.54740   0.75940   Biso      1.000     H          0.129756  
         H12       1.0000    0.21970   0.64060   0.13180   Biso      1.000     H          0.127888  
         H13       1.0000    0.38310   0.84600   0.38060   Biso      1.000     H          0.308451  
         H14       1.0000    0.17120   0.32930   0.34720   Biso      1.000     H          0.145637  
         H15       1.0000    0.48330   0.16700   0.78490   Biso      1.000     H          0.138717  
         H16       1.0000    0.11990   0.35370   0.51810   Biso      1.000     H          0.312025  
         H17       1.0000    0.15430   0.67340   0.42380   Biso      1.000     H          0.139535  
         H18       1.0000    0.82880   0.67070   0.65280   Biso      1.000     H          0.145637  
         H19       1.0000    0.61690   0.15400   0.61940   Biso      1.000     H          0.308451  
         H20       1.0000    0.51670   0.83300   0.21510   Biso      1.000     H          0.138717  
         H21       1.0000    0.53540   0.74970   0.07030   Biso      1.000     H          0.098346  
         H22       1.0000    0.51500   0.40680   0.22250   Biso      1.000     H          0.093413  
         H23       1.0000    0.50770   0.47830   0.37090   Biso      1.000     H          0.140278  
         H24       1.0000    0.32370   0.91470   0.78350   Biso      1.000     H          0.132193  
         H25       1.0000    0.58960   0.84200   0.54130   Biso      1.000     H          0.13691   
         H26       1.0000    0.84570   0.77300   0.34910   Biso      1.000     H          0.12457   
         H27       1.0000    0.85580   0.88160   0.18880   Biso      1.000     H          0.09239   
         H28       1.0000    0.86620   0.56980   0.08430   Biso      1.000     H          0.093994  
         H29       1.0000    0.85840   0.45260   0.24060   Biso      1.000     H          0.129756  
         H30       1.0000    0.78030   0.35940   0.86820   Biso      1.000     H          0.127889  
         H31       1.0000    0.84570   0.32660   0.57620   Biso      1.000     H          0.139535  
         H32       1.0000    0.19460   0.85270   0.53750   Biso      1.000     H          0.149644  
         N1        1.0000    0.86000   0.73760   0.11910   Biso      1.000     N          -0.277006           
         N2        1.0000    0.52120   0.57100   0.13230   Biso      1.000     N          -0.266769           
         N3        1.0000    0.85430   0.56940   0.49540   Biso      1.000     N          -0.415854           
         N4        1.0000    0.42130   0.80430   0.42800   Biso      1.000     N          -0.425255           
         N5        1.0000    0.57870   0.19570   0.57200   Biso      1.000     N          -0.425256           
         N6        1.0000    0.14000   0.26240   0.88090   Biso      1.000     N          -0.277007           
         N7        1.0000    0.14570   0.43060   0.50460   Biso      1.000     N          -0.415854           
         N8        1.0000    0.47880   0.42900   0.86770   Biso      1.000     N          -0.26677  
         O1        1.0000    0.57580   0.90790   0.80900   Biso      1.000     O          -0.695017           
         O2        1.0000    0.00160   0.91590   0.66440   Biso      1.000     O          -0.616184           
         O3        1.0000    0.05610   0.90150   0.81080   Biso      1.000     O          -0.660187           
         O4        1.0000    0.80740   0.40700   0.42510   Biso      1.000     O          -0.452316           
         O5        1.0000    0.79250   0.12000   0.68980   Biso      1.000     O          -0.628108           
         O6        1.0000    0.82970   0.12710   0.83790   Biso      1.000     O          -0.662083           
         O7        1.0000    0.82070   0.71470   0.83350   Biso      1.000     O          -0.687335           
         O8        1.0000    0.69410   0.56560   0.93460   Biso      1.000     O          -0.564207           
         O9        1.0000    0.42480   0.35030   0.53320   Biso      1.000     O          -0.464655           
         O10       1.0000    0.42420   0.09210   0.19100   Biso      1.000     O          -0.695017           
         O11       1.0000    0.99840   0.08410   0.33560   Biso      1.000     O          -0.616184           
         O12       1.0000    0.94390   0.09850   0.18920   Biso      1.000     O          -0.660186           
         O13       1.0000    0.19260   0.59300   0.57490   Biso      1.000     O          -0.452317           
         O14       1.0000    0.20750   0.88000   0.31020   Biso      1.000     O          -0.628109           
         O15       1.0000    0.17030   0.87290   0.16210   Biso      1.000     O          -0.662084           
         O16       1.0000    0.17930   0.28530   0.16650   Biso      1.000     O          -0.687336           
         O17       1.0000    0.30590   0.43440   0.06540   Biso      1.000     O          -0.564206           
         O18       1.0000    0.70950   0.88440   0.66860   Biso      1.000     O          -0.600668           
         O19       1.0000    0.29050   0.11560   0.33140   Biso      1.000     O          -0.600667           
         O20       1.0000    0.57520   0.64970   0.46680   Biso      1.000     O          -0.464655 