
##########################################################################
#               Crystallographic Information Format file
#               Produced by PyCifRW module
#
#  This is a CIF file.  CIF has been adopted by the International
#  Union of Crystallography as the standard for data archiving and
#  transmission.
#
#  For information on this file format, follow the CIF links at
#  http://www.iucr.org
##########################################################################

data_image0

_cell_length_a                          10.0597
_cell_length_b                          10.7824
_cell_length_c                          13.7261
_cell_angle_alpha                       79.141
_cell_angle_beta                        78.801
_cell_angle_gamma                       86.578
_symmetry_space_group_name_H-M          'P 1'
_symmetry_int_tables_number             1
loop_
  _symmetry_equiv_pos_as_xyz
         'x, y, z' 
loop_
  _atom_site_label
  _atom_site_occupancy
  _atom_site_fract_x
  _atom_site_fract_y
  _atom_site_fract_z
  _atom_site_thermal_displace_type
  _atom_site_B_iso_or_equiv
  _atom_site_type_symbol
  _atom_site_charge
         C1        1.0000    0.01020   0.53490   0.31070   Biso      1.000     C          -0.126339           
         C2        1.0000    0.69940   0.47190   0.22790   Biso      1.000     C          -0.025567           
         C3        1.0000    0.01690   0.74510   0.21870   Biso      1.000     C          -0.151763           
         C4        1.0000    0.02520   0.69610   0.13200   Biso      1.000     C          0.096138  
         C5        1.0000    0.01530   0.49370   0.22060   Biso      1.000     C          0.091464  
         C6        1.0000    0.97480   0.30390   0.86800   Biso      1.000     C          0.096135  
         C7        1.0000    0.00850   0.66430   0.31030   Biso      1.000     C          0.040969  
         C8        1.0000    0.00610   0.70580   0.40940   Biso      1.000     C          0.49023999999999995           
         C9        1.0000    0.59080   0.90290   0.71680   Biso      1.000     C          0.584674  
         C10       1.0000    0.70350   0.60320   0.19930   Biso      1.000     C          -0.153074           
         C11       1.0000    0.00210   0.85260   0.57500   Biso      1.000     C          -0.193096           
         C12       1.0000    0.76380   0.86000   0.57150   Biso      1.000     C          -0.16281700000000002          
         C13       1.0000    0.73670   0.88750   0.67000   Biso      1.000     C          -0.001634           
         C14       1.0000    0.84070   0.89650   0.71910   Biso      1.000     C          -0.142623           
         C15       1.0000    0.97400   0.88100   0.67040   Biso      1.000     C          -0.017419999999999998         
         C16       1.0000    0.09340   0.89180   0.71890   Biso      1.000     C          0.571821  
         C17       1.0000    0.34970   0.72920   0.29540   Biso      1.000     C          -0.183502           
         C18       1.0000    0.35540   0.79170   0.19680   Biso      1.000     C          0.09474400000000001           
         C19       1.0000    0.36180   0.61020   0.13680   Biso      1.000     C          0.075209  
         C20       1.0000    0.89490   0.83940   0.52560   Biso      1.000     C          0.263265  
         C21       1.0000    0.68340   0.67700   0.27460   Biso      1.000     C          0.0012259999999999999         
         C22       1.0000    0.66470   0.62230   0.37560   Biso      1.000     C          -0.22316100000000003          
         C23       1.0000    0.66360   0.49130   0.40410   Biso      1.000     C          0.279515  
         C24       1.0000    0.99150   0.33570   0.68970   Biso      1.000     C          0.040968  
         C25       1.0000    0.99390   0.29420   0.59060   Biso      1.000     C          0.49023999999999995           
         C26       1.0000    0.40920   0.09710   0.28320   Biso      1.000     C          0.584674  
         C27       1.0000    0.99790   0.14740   0.42500   Biso      1.000     C          -0.19309500000000002          
         C28       1.0000    0.10510   0.16060   0.47440   Biso      1.000     C          0.26326   
         C29       1.0000    0.23620   0.14000   0.42850   Biso      1.000     C          -0.16281199999999998          
         C30       1.0000    0.26330   0.11250   0.33000   Biso      1.000     C          -0.001634           
         C31       1.0000    0.15930   0.10350   0.28090   Biso      1.000     C          -0.142623           
         C32       1.0000    0.02600   0.11900   0.32960   Biso      1.000     C          -0.017421000000000002         
         C33       1.0000    0.90660   0.10820   0.28110   Biso      1.000     C          0.571821  
         C34       1.0000    0.65030   0.27080   0.70460   Biso      1.000     C          -0.183502           
         C35       1.0000    0.64460   0.20830   0.80320   Biso      1.000     C          0.09474500000000001           
         C36       1.0000    0.63820   0.38980   0.86320   Biso      1.000     C          0.075209  
         C37       1.0000    0.64480   0.46180   0.76890   Biso      1.000     C          -0.160957           
         C38       1.0000    0.65090   0.40120   0.68560   Biso      1.000     C          -0.001451           
         C39       1.0000    0.66800   0.48390   0.58350   Biso      1.000     C          0.493183  
         C40       1.0000    0.73080   0.39130   0.14810   Biso      1.000     C          0.667401  
         C41       1.0000    0.68750   0.81770   0.24760   Biso      1.000     C          0.578465  
         C42       1.0000    0.67700   0.41690   0.32980   Biso      1.000     C          -0.199749           
         C43       1.0000    0.35520   0.53820   0.23110   Biso      1.000     C          -0.160957           
         C44       1.0000    0.98980   0.46510   0.68930   Biso      1.000     C          -0.126338           
         C45       1.0000    0.34910   0.59880   0.31440   Biso      1.000     C          -0.001451           
         C46       1.0000    0.26920   0.60870   0.85190   Biso      1.000     C          0.667402  
         C47       1.0000    0.98310   0.25490   0.78130   Biso      1.000     C          -0.15175999999999998          
         C48       1.0000    0.33200   0.51610   0.41650   Biso      1.000     C          0.49318199999999995           
         C49       1.0000    0.30060   0.52810   0.77210   Biso      1.000     C          -0.025567           
         C50       1.0000    0.29650   0.39680   0.80070   Biso      1.000     C          -0.153075           
         C51       1.0000    0.98470   0.50630   0.77940   Biso      1.000     C          0.091464  
         C52       1.0000    0.33530   0.37770   0.62440   Biso      1.000     C          -0.22316399999999997          
         C53       1.0000    0.33640   0.50870   0.59590   Biso      1.000     C          0.279515  
         C54       1.0000    0.31250   0.18230   0.75240   Biso      1.000     C          0.578465  
         C55       1.0000    0.32300   0.58310   0.67020   Biso      1.000     C          -0.19975  
         C56       1.0000    0.31660   0.32300   0.72540   Biso      1.000     C          0.0012289999999999998         
         Co1       1.0000    0.00000   0.50000   0.00000   Biso      1.000     Co          0.874991  
         H1        1.0000    0.03420   0.75150   0.07050   Biso      1.000     H          0.103272  
         H2        1.0000    0.01480   0.40710   0.22200   Biso      1.000     H          0.09325499999999999           
         H3        1.0000    0.00800   0.47720   0.37060   Biso      1.000     H          0.140298  
         H4        1.0000    0.09140   0.84210   0.54320   Biso      1.000     H          0.13836199999999999           
         H5        1.0000    0.69300   0.85600   0.53770   Biso      1.000     H          0.149869  
         H6        1.0000    0.35470   0.87950   0.18500   Biso      1.000     H          0.09032899999999999           
         H7        1.0000    0.34640   0.77400   0.34750   Biso      1.000     H          0.12746400000000002           
         H8        1.0000    0.36660   0.56900   0.08240   Biso      1.000     H          0.09196599999999999           
         H9        1.0000    0.35480   0.45060   0.24000   Biso      1.000     H          0.13048900000000002           
         H10       1.0000    0.32910   0.67040   0.65150   Biso      1.000     H          0.14652   
         H11       1.0000    0.34710   0.32700   0.57540   Biso      1.000     H          0.139889  
         H12       1.0000    0.28070   0.35930   0.86850   Biso      1.000     H          0.128206  
         H13       1.0000    0.82260   0.91300   0.78460   Biso      1.000     H          0.131602  
         H14       1.0000    0.01690   0.83210   0.21560   Biso      1.000     H          0.136405  
         H15       1.0000    0.88100   0.84710   0.38240   Biso      1.000     H          0.309256  
         H16       1.0000    0.71930   0.64070   0.13150   Biso      1.000     H          0.128206  
         H17       1.0000    0.11900   0.15290   0.61760   Biso      1.000     H          0.309256  
         H18       1.0000    0.61960   0.35410   0.51960   Biso      1.000     H          0.312012  
         H19       1.0000    0.98310   0.16790   0.78440   Biso      1.000     H          0.136405  
         H20       1.0000    0.96580   0.24850   0.92950   Biso      1.000     H          0.103272  
         H21       1.0000    0.98520   0.59290   0.77800   Biso      1.000     H          0.09325499999999999           
         H22       1.0000    0.99200   0.52280   0.62940   Biso      1.000     H          0.140298  
         H23       1.0000    0.38040   0.64590   0.48040   Biso      1.000     H          0.312012  
         H24       1.0000    0.90860   0.15790   0.45680   Biso      1.000     H          0.13836199999999999           
         H25       1.0000    0.17740   0.08700   0.21540   Biso      1.000     H          0.131601  
         H26       1.0000    0.65360   0.22600   0.65250   Biso      1.000     H          0.12746400000000002           
         H27       1.0000    0.64530   0.12050   0.81500   Biso      1.000     H          0.09032899999999999           
         H28       1.0000    0.63340   0.43100   0.91760   Biso      1.000     H          0.091967  
         H29       1.0000    0.64520   0.54940   0.76000   Biso      1.000     H          0.13048900000000002           
         H30       1.0000    0.65290   0.67300   0.42460   Biso      1.000     H          0.139889  
         H31       1.0000    0.30700   0.14400   0.46230   Biso      1.000     H          0.149869  
         H32       1.0000    0.67090   0.32960   0.34850   Biso      1.000     H          0.14652   
         Ho1       1.0000    0.31943   0.92216   0.79566   Biso      1.000     Ho          2.002306  
         Ho2       1.0000    0.68057   0.07784   0.20434   Biso      1.000     Ho          2.002306  
         N1        1.0000    0.07990   0.19480   0.57080   Biso      1.000     N          -0.428014           
         N2        1.0000    0.63830   0.26420   0.88130   Biso      1.000     N          -0.273673           
         N3        1.0000    0.64620   0.43090   0.50550   Biso      1.000     N          -0.422465           
         N4        1.0000    0.97920   0.42960   0.86750   Biso      1.000     N          -0.267425           
         N5        1.0000    0.92010   0.80520   0.42920   Biso      1.000     N          -0.428014           
         N6        1.0000    0.36170   0.73580   0.11870   Biso      1.000     N          -0.273674           
         N7        1.0000    0.35380   0.56910   0.49450   Biso      1.000     N          -0.422465           
         N8        1.0000    0.02080   0.57040   0.13250   Biso      1.000     N          -0.267425           
         O1        1.0000    0.80610   0.43210   0.06660   Biso      1.000     O          -0.559182           
         O2        1.0000    0.44360   0.09670   0.18890   Biso      1.000     O          -0.659974           
         O3        1.0000    0.92380   0.09210   0.18930   Biso      1.000     O          -0.695571           
         O4        1.0000    0.79020   0.11650   0.33090   Biso      1.000     O          -0.5940449999999999           
         O5        1.0000    0.69420   0.59420   0.57490   Biso      1.000     O          -0.45182799999999995          
         O6        1.0000    0.67120   0.87460   0.16150   Biso      1.000     O          -0.653907           
         O7        1.0000    0.70640   0.88230   0.31050   Biso      1.000     O          -0.6276689999999999           
         O8        1.0000    0.67540   0.28340   0.16950   Biso      1.000     O          -0.690346           
         O9        1.0000    0.07740   0.65160   0.46720   Biso      1.000     O          -0.459312           
         O10       1.0000    0.20980   0.88350   0.66910   Biso      1.000     O          -0.5940439999999999           
         O11       1.0000    0.55640   0.90330   0.81110   Biso      1.000     O          -0.659974           
         O12       1.0000    0.07620   0.90790   0.81070   Biso      1.000     O          -0.695571           
         O13       1.0000    0.49930   0.08390   0.33550   Biso      1.000     O          -0.610746           
         O14       1.0000    0.30580   0.40580   0.42510   Biso      1.000     O          -0.45182799999999995          
         O15       1.0000    0.32880   0.12540   0.83850   Biso      1.000     O          -0.653907           
         O16       1.0000    0.29360   0.11770   0.68950   Biso      1.000     O          -0.6276689999999999           
         O17       1.0000    0.32460   0.71660   0.83050   Biso      1.000     O          -0.690347           
         O18       1.0000    0.19390   0.56790   0.93340   Biso      1.000     O          -0.559182           
         O19       1.0000    0.50070   0.91610   0.66450   Biso      1.000     O          -0.610746           
         O20       1.0000    0.92260   0.34840   0.53280   Biso      1.000     O          -0.459312 