
##########################################################################
#               Crystallographic Information Format file
#               Produced by PyCifRW module
#
#  This is a CIF file.  CIF has been adopted by the International
#  Union of Crystallography as the standard for data archiving and
#  transmission.
#
#  For information on this file format, follow the CIF links at
#  http://www.iucr.org
##########################################################################

data_image0

_cell_length_a                          9.9736
_cell_length_b                          12.7051
_cell_length_c                          12.8489
_cell_angle_alpha                       90
_cell_angle_beta                        90
_cell_angle_gamma                       90
_symmetry_space_group_name_H-M          'P 1'
_symmetry_int_tables_number             1
loop_
  _symmetry_equiv_pos_as_xyz
         'x, y, z' 
loop_
  _atom_site_label
  _atom_site_occupancy
  _atom_site_fract_x
  _atom_site_fract_y
  _atom_site_fract_z
  _atom_site_thermal_displace_type
  _atom_site_B_iso_or_equiv
  _atom_site_type_symbol
  _atom_site_charge
         C1        1.0000    0.48370   0.60860   0.01440   Biso      1.000     C          -0.057573           
         C2        1.0000    0.58980   0.96310   0.57320   Biso      1.000     C          -0.168506           
         C3        1.0000    0.15480   0.35820   0.86960   Biso      1.000     C          0.613498  
         C4        1.0000    0.96940   0.27750   0.04580   Biso      1.000     C          0.659325  
         C5        1.0000    0.07450   0.42870   0.93970   Biso      1.000     C          -0.070994           
         C6        1.0000    0.08980   0.53690   0.92680   Biso      1.000     C          -0.169784           
         C7        1.0000    0.15480   0.85820   0.63040   Biso      1.000     C          0.609516  
         C8        1.0000    0.96940   0.77750   0.45420   Biso      1.000     C          0.660425  
         C9        1.0000    0.98370   0.89140   0.48560   Biso      1.000     C          -0.061163           
         C10       1.0000    0.07450   0.92870   0.56030   Biso      1.000     C          -0.070242           
         C11       1.0000    0.08980   0.03690   0.57320   Biso      1.000     C          -0.169101           
         C12       1.0000    0.65480   0.64180   0.86960   Biso      1.000     C          0.613193  
         C13       1.0000    0.57450   0.07130   0.56030   Biso      1.000     C          -0.069109           
         C14       1.0000    0.46940   0.72250   0.04580   Biso      1.000     C          0.6597310000000001  
         C15       1.0000    0.58980   0.46310   0.92680   Biso      1.000     C          -0.168647           
         C16       1.0000    0.34520   0.85820   0.36960   Biso      1.000     C          0.613321  
         C17       1.0000    0.53060   0.77750   0.54580   Biso      1.000     C          0.660479  
         C18       1.0000    0.51630   0.89140   0.51440   Biso      1.000     C          -0.05740599999999999          
         C19       1.0000    0.42550   0.92870   0.43970   Biso      1.000     C          -0.067723           
         C20       1.0000    0.41020   0.03690   0.42680   Biso      1.000     C          -0.168673           
         C21       1.0000    0.84520   0.64180   0.13040   Biso      1.000     C          0.6131489999999999  
         C22       1.0000    0.03060   0.72250   0.95420   Biso      1.000     C          0.6605439999999999  
         C23       1.0000    0.01630   0.60860   0.98560   Biso      1.000     C          -0.058021           
         C24       1.0000    0.92550   0.57130   0.06030   Biso      1.000     C          -0.070349           
         C25       1.0000    0.91020   0.46310   0.07320   Biso      1.000     C          -0.16989500000000002          
         C26       1.0000    0.57450   0.57130   0.93970   Biso      1.000     C          -0.06691  
         C27       1.0000    0.48370   0.10860   0.48560   Biso      1.000     C          -0.058357000000000006         
         C28       1.0000    0.98370   0.39140   0.01440   Biso      1.000     C          -0.059317999999999996         
         C29       1.0000    0.65480   0.14180   0.63040   Biso      1.000     C          0.61548   
         C30       1.0000    0.41020   0.53690   0.07320   Biso      1.000     C          -0.167757           
         C31       1.0000    0.42550   0.42870   0.06030   Biso      1.000     C          -0.068164           
         C32       1.0000    0.51630   0.39140   0.98560   Biso      1.000     C          -0.057329           
         C33       1.0000    0.53060   0.27750   0.95420   Biso      1.000     C          0.659928  
         C34       1.0000    0.34520   0.35820   0.13040   Biso      1.000     C          0.617112  
         C35       1.0000    0.91020   0.96310   0.42680   Biso      1.000     C          -0.16767200000000002          
         C36       1.0000    0.92550   0.07130   0.43970   Biso      1.000     C          -0.072252           
         C37       1.0000    0.01630   0.10860   0.51440   Biso      1.000     C          -0.059826           
         C38       1.0000    0.03060   0.22250   0.54580   Biso      1.000     C          0.660949  
         C39       1.0000    0.84520   0.14180   0.36960   Biso      1.000     C          0.6144229999999999  
         C40       1.0000    0.46940   0.22250   0.45420   Biso      1.000     C          0.6593979999999999  
         H1        1.0000    0.84950   0.93810   0.37770   Biso      1.000     H          0.088138  
         H2        1.0000    0.65050   0.93810   0.62230   Biso      1.000     H          0.089508  
         H3        1.0000    0.15050   0.56190   0.87770   Biso      1.000     H          0.088408  
         H4        1.0000    0.15050   0.06190   0.62230   Biso      1.000     H          0.087969  
         H5        1.0000    0.34950   0.56190   0.12230   Biso      1.000     H          0.08804   
         H6        1.0000    0.65050   0.43810   0.87770   Biso      1.000     H          0.088232  
         H7        1.0000    0.34950   0.06190   0.37770   Biso      1.000     H          0.087788  
         H8        1.0000    0.84950   0.43810   0.12230   Biso      1.000     H          0.087138  
         O1        1.0000    0.92150   0.20885   0.98574   Biso      1.000     O          -0.62365  
         O2        1.0000    0.00040   0.25508   0.13774   Biso      1.000     O          -0.603809           
         O3        1.0000    0.10630   0.26990   0.84440   Biso      1.000     O          -0.651559           
         O4        1.0000    0.26690   0.88977   0.66166   Biso      1.000     O          -0.599531           
         O5        1.0000    0.92150   0.70885   0.51426   Biso      1.000     O          -0.623758           
         O6        1.0000    0.00040   0.75508   0.36226   Biso      1.000     O          -0.604741           
         O7        1.0000    0.10630   0.76990   0.65560   Biso      1.000     O          -0.650563           
         O8        1.0000    0.76690   0.61023   0.83834   Biso      1.000     O          -0.596931           
         O9        1.0000    0.07850   0.79115   0.01426   Biso      1.000     O          -0.6192850000000001           
         O10       1.0000    0.50040   0.74492   0.13774   Biso      1.000     O          -0.604641           
         O11       1.0000    0.73310   0.61023   0.16166   Biso      1.000     O          -0.5964229999999999           
         O12       1.0000    0.39370   0.76990   0.34440   Biso      1.000     O          -0.648496           
         O13       1.0000    0.49960   0.75508   0.63774   Biso      1.000     O          -0.607525           
         O14       1.0000    0.57850   0.70885   0.48574   Biso      1.000     O          -0.6200319999999999           
         O15       1.0000    0.23310   0.88977   0.33834   Biso      1.000     O          -0.593399           
         O16       1.0000    0.60630   0.73010   0.84440   Biso      1.000     O          -0.648464           
         O17       1.0000    0.26690   0.38977   0.83834   Biso      1.000     O          -0.599601           
         O18       1.0000    0.42150   0.79115   0.98574   Biso      1.000     O          -0.621684           
         O19       1.0000    0.60630   0.23010   0.65560   Biso      1.000     O          -0.649842           
         O20       1.0000    0.89370   0.73010   0.15560   Biso      1.000     O          -0.647912           
         O21       1.0000    0.42150   0.29115   0.51426   Biso      1.000     O          -0.6229520000000001           
         O22       1.0000    0.99960   0.74492   0.86226   Biso      1.000     O          -0.608159           
         O23       1.0000    0.50040   0.24492   0.36226   Biso      1.000     O          -0.604518           
         O24       1.0000    0.07850   0.29115   0.48574   Biso      1.000     O          -0.620684           
         O25       1.0000    0.99960   0.24492   0.63774   Biso      1.000     O          -0.605318           
         O26       1.0000    0.89370   0.23010   0.34440   Biso      1.000     O          -0.6483300000000001           
         O27       1.0000    0.73310   0.11023   0.33834   Biso      1.000     O          -0.5950350000000001           
         O28       1.0000    0.57850   0.20885   0.01426   Biso      1.000     O          -0.619976           
         O29       1.0000    0.49960   0.25508   0.86226   Biso      1.000     O          -0.605106           
         O30       1.0000    0.39370   0.26990   0.15560   Biso      1.000     O          -0.646177           
         O31       1.0000    0.76690   0.11023   0.66166   Biso      1.000     O          -0.5985560000000001           
         O32       1.0000    0.23310   0.38977   0.16166   Biso      1.000     O          -0.594024           
         U1        1.0000    0.59489   0.68686   0.29860   Biso      1.000     U          1.4028450000000001  
         U2        1.0000    0.09489   0.81314   0.20140   Biso      1.000     U          1.395957  
         U3        1.0000    0.90511   0.68686   0.70140   Biso      1.000     U          1.4135440000000001  
         U4        1.0000    0.40511   0.81314   0.79860   Biso      1.000     U          1.4133870000000002  
         U5        1.0000    0.40511   0.31314   0.70140   Biso      1.000     U          1.415042  
         U6        1.0000    0.90511   0.18686   0.79860   Biso      1.000     U          1.415035  
         U7        1.0000    0.09489   0.31314   0.29860   Biso      1.000     U          1.401735  
         U8        1.0000    0.59489   0.18686   0.20140   Biso      1.000     U          1.402212 