
##########################################################################
#               Crystallographic Information Format file
#               Produced by PyCifRW module
#
#  This is a CIF file.  CIF has been adopted by the International
#  Union of Crystallography as the standard for data archiving and
#  transmission.
#
#  For information on this file format, follow the CIF links at
#  http://www.iucr.org
##########################################################################

data_image0

_cell_length_a                          11.548
_cell_length_b                          11.7973
_cell_length_c                          14.0617
_cell_angle_alpha                       112.924
_cell_angle_beta                        90
_cell_angle_gamma                       119.303
_symmetry_space_group_name_H-M          'P 1'
_symmetry_int_tables_number             1
loop_
  _symmetry_equiv_pos_as_xyz
         'x, y, z' 
loop_
  _atom_site_label
  _atom_site_occupancy
  _atom_site_fract_x
  _atom_site_fract_y
  _atom_site_fract_z
  _atom_site_thermal_displace_type
  _atom_site_B_iso_or_equiv
  _atom_site_type_symbol
  _atom_site_charge
         C1        1.0000    0.39323   0.51742   0.02966   Biso      1.000     C          -0.115519           
         C2        1.0000    0.10275   0.93826   0.05625   Biso      1.000     C          0.083612  
         C3        1.0000    0.87581   0.48258   0.47034   Biso      1.000     C          -0.115515           
         C4        1.0000    0.09640   0.62210   0.58923   Biso      1.000     C          -0.128502           
         C5        1.0000    0.97154   0.60554   0.55982   Biso      1.000     C          -0.020928           
         C6        1.0000    0.94299   0.72158   0.62101   Biso      1.000     C          0.551399  
         C7        1.0000    0.59422   0.08624   0.46040   Biso      1.000     C          -0.145513           
         C8        1.0000    0.49893   0.88006   0.49550   Biso      1.000     C          -0.149284           
         C9        1.0000    0.18140   0.16760   0.14448   Biso      1.000     C          -0.045174           
         C10       1.0000    0.59404   0.96670   0.45525   Biso      1.000     C          0.102369  
         C11       1.0000    0.91178   0.15076   0.56050   Biso      1.000     C          -0.115588           
         C12       1.0000    0.98620   0.16760   0.64448   Biso      1.000     C          -0.045188           
         C13       1.0000    0.83551   0.93826   0.55625   Biso      1.000     C          0.083602  
         C14       1.0000    0.47430   0.37790   0.91077   Biso      1.000     C          -0.12848  
         C15       1.0000    0.36600   0.39446   0.94018   Biso      1.000     C          -0.02092  
         C16       1.0000    0.50798   0.91376   0.03960   Biso      1.000     C          -0.145544           
         C17       1.0000    0.61887   0.11994   0.00450   Biso      1.000     C          -0.149272           
         C18       1.0000    0.70286   0.93696   0.41480   Biso      1.000     C          -0.169685           
         C19       1.0000    0.23898   0.15076   0.06050   Biso      1.000     C          -0.115553           
         C20       1.0000    0.23410   0.93696   0.91480   Biso      1.000     C          -0.16967  
         C21       1.0000    0.37266   0.96670   0.95525   Biso      1.000     C          0.102379  
         C22       1.0000    0.12419   0.51742   0.52966   Biso      1.000     C          -0.115513           
         C23       1.0000    0.90360   0.37790   0.41077   Biso      1.000     C          -0.1285   
         C24       1.0000    0.02846   0.39446   0.44018   Biso      1.000     C          -0.020928           
         C25       1.0000    0.05701   0.27842   0.37899   Biso      1.000     C          0.551399  
         C26       1.0000    0.40578   0.91376   0.53960   Biso      1.000     C          -0.145515           
         C27       1.0000    0.50107   0.11994   0.50450   Biso      1.000     C          -0.149286           
         C28       1.0000    0.40596   0.03330   0.54475   Biso      1.000     C          0.10237   
         C29       1.0000    0.29714   0.06304   0.58520   Biso      1.000     C          -0.169684           
         C30       1.0000    0.08822   0.84924   0.43950   Biso      1.000     C          -0.115588           
         C31       1.0000    0.01380   0.83240   0.35552   Biso      1.000     C          -0.045188           
         C32       1.0000    0.16449   0.06174   0.44375   Biso      1.000     C          0.083602  
         C33       1.0000    0.60677   0.48258   0.97034   Biso      1.000     C          -0.115517           
         C34       1.0000    0.52570   0.62210   0.08923   Biso      1.000     C          -0.128478           
         C35       1.0000    0.63400   0.60554   0.05982   Biso      1.000     C          -0.020921           
         C36       1.0000    0.77859   0.72158   0.12101   Biso      1.000     C          0.55142   
         C37       1.0000    0.49202   0.08624   0.96040   Biso      1.000     C          -0.145545           
         C38       1.0000    0.38113   0.88006   0.99550   Biso      1.000     C          -0.149273           
         C39       1.0000    0.62734   0.03330   0.04475   Biso      1.000     C          0.102381  
         C40       1.0000    0.76590   0.06304   0.08520   Biso      1.000     C          -0.16967  
         C41       1.0000    0.22141   0.27842   0.87899   Biso      1.000     C          0.551421  
         C42       1.0000    0.81860   0.83240   0.85552   Biso      1.000     C          -0.045174           
         C43       1.0000    0.89725   0.06174   0.94375   Biso      1.000     C          0.083612  
         C44       1.0000    0.76102   0.84924   0.93950   Biso      1.000     C          -0.115553           
         H1        1.0000    0.16130   0.70400   0.64930   Biso      1.000     H          0.114429  
         H2        1.0000    0.65790   0.14520   0.43380   Biso      1.000     H          0.11446   
         H3        1.0000    0.66440   0.83300   0.37850   Biso      1.000     H          0.1304    
         H4        1.0000    0.73560   0.97640   0.36460   Biso      1.000     H          0.135028  
         H5        1.0000    0.92260   0.22360   0.54360   Biso      1.000     H          0.130304  
         H6        1.0000    0.05860   0.25580   0.69580   Biso      1.000     H          0.126788  
         H7        1.0000    0.78360   0.83860   0.53460   Biso      1.000     H          0.114211  
         H8        1.0000    0.32180   0.52960   0.04980   Biso      1.000     H          0.118948  
         H9        1.0000    0.45730   0.29600   0.85070   Biso      1.000     H          0.11442   
         H10       1.0000    0.51270   0.85480   0.06620   Biso      1.000     H          0.114459  
         H11       1.0000    0.69810   0.20060   0.00700   Biso      1.000     H          0.121235  
         H12       1.0000    0.83140   0.16700   0.12150   Biso      1.000     H          0.130396  
         H13       1.0000    0.75920   0.02360   0.13540   Biso      1.000     H          0.135024  
         H14       1.0000    0.69900   0.77640   0.95640   Biso      1.000     H          0.130303  
         H15       1.0000    0.80280   0.74420   0.80420   Biso      1.000     H          0.126764  
         H16       1.0000    0.94500   0.16140   0.96540   Biso      1.000     H          0.114169  
         H17       1.0000    0.79220   0.47040   0.45020   Biso      1.000     H          0.118955  
         H18       1.0000    0.05500   0.83860   0.03460   Biso      1.000     H          0.114168  
         H19       1.0000    0.49750   0.79940   0.49300   Biso      1.000     H          0.121228  
         H20       1.0000    0.30100   0.22360   0.04360   Biso      1.000     H          0.130303  
         H21       1.0000    0.20780   0.52960   0.54980   Biso      1.000     H          0.118955  
         H22       1.0000    0.83870   0.29600   0.35070   Biso      1.000     H          0.114429  
         H23       1.0000    0.19720   0.25580   0.19580   Biso      1.000     H          0.126763  
         H24       1.0000    0.50250   0.20060   0.50700   Biso      1.000     H          0.121228  
         H25       1.0000    0.33560   0.16700   0.62150   Biso      1.000     H          0.1304    
         H26       1.0000    0.26440   0.02360   0.63540   Biso      1.000     H          0.135028  
         H27       1.0000    0.07740   0.77640   0.45640   Biso      1.000     H          0.130304  
         H28       1.0000    0.34210   0.85480   0.56620   Biso      1.000     H          0.11446   
         H29       1.0000    0.21640   0.16140   0.46540   Biso      1.000     H          0.114211  
         H30       1.0000    0.67820   0.47040   0.95020   Biso      1.000     H          0.118949  
         H31       1.0000    0.54270   0.70400   0.14930   Biso      1.000     H          0.11442   
         H32       1.0000    0.48730   0.14520   0.93380   Biso      1.000     H          0.114459  
         H33       1.0000    0.30190   0.79940   0.99300   Biso      1.000     H          0.121236  
         H34       1.0000    0.16860   0.83300   0.87850   Biso      1.000     H          0.130396  
         H35       1.0000    0.24080   0.97640   0.86460   Biso      1.000     H          0.135024  
         H36       1.0000    0.94140   0.74420   0.30420   Biso      1.000     H          0.126788  
         N1        1.0000    0.18293   0.99504   0.49471   Biso      1.000     N          0.080362  
         N2        1.0000    0.06142   0.96592   0.35749   Biso      1.000     N          -0.275165           
         N3        1.0000    0.90450   0.96592   0.85749   Biso      1.000     N          -0.275115           
         N4        1.0000    0.81211   0.99504   0.99471   Biso      1.000     N          0.080316  
         N5        1.0000    0.93858   0.03408   0.64251   Biso      1.000     N          -0.275165           
         N6        1.0000    0.81707   0.00496   0.50529   Biso      1.000     N          0.080362  
         N7        1.0000    0.09550   0.03408   0.14251   Biso      1.000     N          -0.275115           
         N8        1.0000    0.18789   0.00496   0.00529   Biso      1.000     N          0.080316  
         O1        1.0000    0.87108   0.69672   0.10536   Biso      1.000     O          -0.57309  
         O2        1.0000    0.79585   0.84330   0.18611   Biso      1.000     O          -0.565017           
         O3        1.0000    0.82564   0.69672   0.60536   Biso      1.000     O          -0.573072           
         O4        1.0000    0.04745   0.84330   0.68611   Biso      1.000     O          -0.565003           
         O5        1.0000    0.17436   0.30328   0.39464   Biso      1.000     O          -0.573072           
         O6        1.0000    0.20415   0.15670   0.81389   Biso      1.000     O          -0.565017           
         O7        1.0000    0.95255   0.15670   0.31389   Biso      1.000     O          -0.565003           
         O8        1.0000    0.12892   0.30328   0.89464   Biso      1.000     O          -0.57309  
         Zn1       1.0000    0.98825   0.00000   0.25000   Biso      1.000     Zn          0.759815  
         Zn2       1.0000    0.01175   0.00000   0.75000   Biso      1.000     Zn          0.759815 