
##########################################################################
#               Crystallographic Information Format file
#               Produced by PyCifRW module
#
#  This is a CIF file.  CIF has been adopted by the International
#  Union of Crystallography as the standard for data archiving and
#  transmission.
#
#  For information on this file format, follow the CIF links at
#  http://www.iucr.org
##########################################################################

data_image0

_cell_length_a                          9.5741
_cell_length_b                          11.4403
_cell_length_c                          25.674
_cell_angle_alpha                       90
_cell_angle_beta                        90
_cell_angle_gamma                       90
_symmetry_space_group_name_H-M          'P 1'
_symmetry_int_tables_number             1
loop_
  _symmetry_equiv_pos_as_xyz
         'x, y, z' 
loop_
  _atom_site_label
  _atom_site_occupancy
  _atom_site_fract_x
  _atom_site_fract_y
  _atom_site_fract_z
  _atom_site_thermal_displace_type
  _atom_site_B_iso_or_equiv
  _atom_site_type_symbol
  _atom_site_charge
         C1        1.0000    0.63260   0.66690   0.65260   Biso      1.000     C          -0.057638999999999996         
         C2        1.0000    0.12820   0.33440   0.93070   Biso      1.000     C          0.5491689999999999  
         C3        1.0000    0.13260   0.83310   0.34740   Biso      1.000     C          -0.058297           
         C4        1.0000    0.05960   0.80000   0.39120   Biso      1.000     C          -0.026748           
         C5        1.0000    0.44040   0.70000   0.89120   Biso      1.000     C          -0.025351           
         C6        1.0000    0.37180   0.83440   0.56930   Biso      1.000     C          0.54875   
         C7        1.0000    0.58530   0.63650   0.55860   Biso      1.000     C          0.571403  
         C8        1.0000    0.46100   0.78780   0.61310   Biso      1.000     C          0.026362  
         C9        1.0000    0.11150   0.78310   0.29980   Biso      1.000     C          -0.190885           
         C10       1.0000    0.44110   0.84520   0.66140   Biso      1.000     C          -0.23634299999999997          
         C11       1.0000    0.36740   0.66690   0.84740   Biso      1.000     C          -0.057802           
         C12       1.0000    0.61150   0.71690   0.70020   Biso      1.000     C          -0.19178  
         C13       1.0000    0.55960   0.70000   0.60880   Biso      1.000     C          -0.025117           
         C14       1.0000    0.38850   0.71690   0.79980   Biso      1.000     C          -0.191237           
         C15       1.0000    0.87180   0.33440   0.56930   Biso      1.000     C          0.5494100000000001  
         C16       1.0000    0.08530   0.13650   0.55860   Biso      1.000     C          0.572113  
         C17       1.0000    0.96100   0.28780   0.61310   Biso      1.000     C          0.025304  
         C18       1.0000    0.51580   0.80700   0.70420   Biso      1.000     C          0.278514  
         C19       1.0000    0.94110   0.34520   0.66140   Biso      1.000     C          -0.23655  
         C20       1.0000    0.91470   0.13650   0.94140   Biso      1.000     C          0.57191   
         C21       1.0000    0.01580   0.69300   0.29580   Biso      1.000     C          0.277812  
         C22       1.0000    0.86740   0.16690   0.84740   Biso      1.000     C          -0.057990999999999994         
         C23       1.0000    0.94040   0.20000   0.89120   Biso      1.000     C          -0.027842000000000002         
         C24       1.0000    0.37180   0.16560   0.43070   Biso      1.000     C          0.5472319999999999  
         C25       1.0000    0.58530   0.36350   0.44140   Biso      1.000     C          0.570336  
         C26       1.0000    0.46100   0.21220   0.38690   Biso      1.000     C          0.029653  
         C27       1.0000    0.44110   0.15480   0.33860   Biso      1.000     C          -0.23984  
         C28       1.0000    0.51580   0.19300   0.29580   Biso      1.000     C          0.279404  
         C29       1.0000    0.03900   0.28780   0.88690   Biso      1.000     C          0.025365000000000002          
         C30       1.0000    0.98420   0.30700   0.79580   Biso      1.000     C          0.277885  
         C31       1.0000    0.05890   0.34520   0.83860   Biso      1.000     C          -0.23652199999999998          
         C32       1.0000    0.63260   0.33310   0.34740   Biso      1.000     C          -0.061233           
         C33       1.0000    0.55960   0.30000   0.39120   Biso      1.000     C          -0.022158           
         C34       1.0000    0.87180   0.66560   0.43070   Biso      1.000     C          0.548712  
         C35       1.0000    0.08530   0.86350   0.44140   Biso      1.000     C          0.571607  
         C36       1.0000    0.96100   0.71220   0.38690   Biso      1.000     C          0.025906000000000002          
         C37       1.0000    0.94110   0.65480   0.33860   Biso      1.000     C          -0.23713099999999998          
         C38       1.0000    0.61150   0.28310   0.29980   Biso      1.000     C          -0.18705  
         C39       1.0000    0.01580   0.30700   0.70420   Biso      1.000     C          0.277661  
         C40       1.0000    0.88850   0.21690   0.79980   Biso      1.000     C          -0.19304000000000002          
         C41       1.0000    0.53900   0.78780   0.88690   Biso      1.000     C          0.025917000000000003          
         C42       1.0000    0.36740   0.33310   0.15260   Biso      1.000     C          -0.058725           
         C43       1.0000    0.12820   0.66560   0.06930   Biso      1.000     C          0.5491020000000001  
         C44       1.0000    0.91470   0.86350   0.05860   Biso      1.000     C          0.572082  
         C45       1.0000    0.38850   0.28310   0.20020   Biso      1.000     C          -0.190187           
         C46       1.0000    0.03900   0.71220   0.11310   Biso      1.000     C          0.025532  
         C47       1.0000    0.55890   0.84520   0.83860   Biso      1.000     C          -0.23620100000000002          
         C48       1.0000    0.48420   0.19300   0.20420   Biso      1.000     C          0.276381  
         C49       1.0000    0.55890   0.15480   0.16140   Biso      1.000     C          -0.23772  
         C50       1.0000    0.05890   0.65480   0.16140   Biso      1.000     C          -0.236857           
         C51       1.0000    0.53900   0.21220   0.11310   Biso      1.000     C          0.025907999999999997          
         C52       1.0000    0.98420   0.69300   0.20420   Biso      1.000     C          0.277582  
         C53       1.0000    0.44040   0.30000   0.10880   Biso      1.000     C          -0.026623           
         C54       1.0000    0.62820   0.16560   0.06930   Biso      1.000     C          0.548566  
         C55       1.0000    0.41470   0.36350   0.05860   Biso      1.000     C          0.5721470000000001  
         C56       1.0000    0.41470   0.63650   0.94140   Biso      1.000     C          0.5714819999999999  
         C57       1.0000    0.62820   0.83440   0.93070   Biso      1.000     C          0.5488689999999999  
         C58       1.0000    0.05960   0.20000   0.60880   Biso      1.000     C          -0.027837999999999998         
         C59       1.0000    0.94040   0.80000   0.10880   Biso      1.000     C          -0.027319           
         C60       1.0000    0.88850   0.78310   0.20020   Biso      1.000     C          -0.19244  
         C61       1.0000    0.13260   0.16690   0.65260   Biso      1.000     C          -0.057767           
         C62       1.0000    0.11150   0.21690   0.70020   Biso      1.000     C          -0.192269           
         C63       1.0000    0.48420   0.80700   0.79580   Biso      1.000     C          0.277848  
         C64       1.0000    0.86740   0.83310   0.15260   Biso      1.000     C          -0.05809299999999999          
         H1        1.0000    0.80090   0.10800   0.85040   Biso      1.000     H          0.123682  
         H2        1.0000    0.12100   0.40730   0.83570   Biso      1.000     H          0.153649  
         H3        1.0000    0.66030   0.30910   0.27070   Biso      1.000     H          0.140503  
         H4        1.0000    0.69910   0.39200   0.35040   Biso      1.000     H          0.12456600000000001           
         H5        1.0000    0.37900   0.09270   0.33570   Biso      1.000     H          0.154534  
         H6        1.0000    0.83970   0.80910   0.22930   Biso      1.000     H          0.140402  
         H7        1.0000    0.80090   0.89200   0.14960   Biso      1.000     H          0.12378199999999999           
         H8        1.0000    0.12100   0.59270   0.16430   Biso      1.000     H          0.15373399999999998           
         H9        1.0000    0.19910   0.89200   0.35040   Biso      1.000     H          0.123977  
         H10       1.0000    0.30090   0.39200   0.14960   Biso      1.000     H          0.124043  
         H11       1.0000    0.83970   0.19090   0.77070   Biso      1.000     H          0.140398  
         H12       1.0000    0.69910   0.60800   0.64960   Biso      1.000     H          0.124073  
         H13       1.0000    0.87900   0.59270   0.33570   Biso      1.000     H          0.153799  
         H14       1.0000    0.16030   0.19090   0.72930   Biso      1.000     H          0.140534  
         H15       1.0000    0.66030   0.69090   0.72930   Biso      1.000     H          0.14063299999999998           
         H16       1.0000    0.37900   0.90730   0.66430   Biso      1.000     H          0.154091  
         H17       1.0000    0.30090   0.60800   0.85040   Biso      1.000     H          0.124194  
         H18       1.0000    0.62100   0.90730   0.83570   Biso      1.000     H          0.15403   
         H19       1.0000    0.87900   0.40730   0.66430   Biso      1.000     H          0.15370599999999998           
         H20       1.0000    0.33970   0.30910   0.22930   Biso      1.000     H          0.140325  
         H21       1.0000    0.16030   0.80910   0.27070   Biso      1.000     H          0.14055   
         H22       1.0000    0.33970   0.69090   0.77070   Biso      1.000     H          0.14064100000000002           
         H23       1.0000    0.62100   0.09270   0.16430   Biso      1.000     H          0.153834  
         H24       1.0000    0.19910   0.10800   0.64960   Biso      1.000     H          0.123826  
         O1        1.0000    0.06900   0.40580   0.96219   Biso      1.000     O          -0.450938           
         O2        1.0000    0.75320   0.80950   0.93170   Biso      1.000     O          -0.379894           
         O3        1.0000    0.00000   0.62680   0.25000   Biso      1.000     O          -0.22341  
         O4        1.0000    0.50690   0.63700   0.97570   Biso      1.000     O          -0.343729           
         O5        1.0000    0.25320   0.30950   0.93170   Biso      1.000     O          -0.38193  
         O6        1.0000    0.29740   0.58710   0.94400   Biso      1.000     O          -0.522803           
         O7        1.0000    0.50000   0.12680   0.25000   Biso      1.000     O          -0.223494           
         O8        1.0000    0.56900   0.90580   0.96219   Biso      1.000     O          -0.449755           
         O9        1.0000    0.79740   0.91290   0.05600   Biso      1.000     O          -0.523641           
         O10       1.0000    0.79740   0.08710   0.94400   Biso      1.000     O          -0.522927           
         O11       1.0000    0.00690   0.86300   0.02430   Biso      1.000     O          -0.342034           
         O12       1.0000    0.06900   0.59420   0.03781   Biso      1.000     O          -0.450855           
         O13       1.0000    0.25320   0.69050   0.06830   Biso      1.000     O          -0.382296           
         O14       1.0000    0.29740   0.41290   0.05600   Biso      1.000     O          -0.523289           
         O15       1.0000    0.50690   0.36300   0.02430   Biso      1.000     O          -0.34413499999999997          
         O16       1.0000    0.56900   0.09420   0.03781   Biso      1.000     O          -0.448194           
         O17       1.0000    0.75320   0.19050   0.06830   Biso      1.000     O          -0.378698           
         O18       1.0000    0.20260   0.08710   0.55600   Biso      1.000     O          -0.52328  
         O19       1.0000    0.99310   0.13700   0.52430   Biso      1.000     O          -0.341598           
         O20       1.0000    0.00690   0.13700   0.97570   Biso      1.000     O          -0.34213899999999997          
         O21       1.0000    0.74680   0.30950   0.56830   Biso      1.000     O          -0.37699  
         O22       1.0000    0.70260   0.58710   0.55600   Biso      1.000     O          -0.524034           
         O23       1.0000    0.93100   0.40580   0.53781   Biso      1.000     O          -0.451804           
         O24       1.0000    0.43100   0.90580   0.53781   Biso      1.000     O          -0.45232700000000003          
         O25       1.0000    0.24680   0.19050   0.43170   Biso      1.000     O          -0.383296           
         O26       1.0000    0.43100   0.09420   0.46219   Biso      1.000     O          -0.450059           
         O27       1.0000    0.49310   0.63700   0.52430   Biso      1.000     O          -0.34386700000000003          
         O28       1.0000    0.70260   0.41290   0.44400   Biso      1.000     O          -0.5243   
         O29       1.0000    0.74680   0.69050   0.43170   Biso      1.000     O          -0.37942800000000004          
         O30       1.0000    0.49310   0.36300   0.47570   Biso      1.000     O          -0.343052           
         O31       1.0000    0.99310   0.86300   0.47570   Biso      1.000     O          -0.343634           
         O32       1.0000    0.00000   0.37320   0.75000   Biso      1.000     O          -0.22365300000000002          
         O33       1.0000    0.20260   0.91290   0.44400   Biso      1.000     O          -0.522523           
         O34       1.0000    0.24680   0.80950   0.56830   Biso      1.000     O          -0.38117399999999996          
         O35       1.0000    0.93100   0.59420   0.46219   Biso      1.000     O          -0.448941           
         O36       1.0000    0.50000   0.87320   0.75000   Biso      1.000     O          -0.220886           
         Zn1       1.0000    0.71314   0.00000   0.00000   Biso      1.000     Zn          0.956678  
         Zn2       1.0000    0.21314   0.50000   0.00000   Biso      1.000     Zn          0.957451  
         Zn3       1.0000    0.28686   0.00000   0.50000   Biso      1.000     Zn          0.9573309999999999  
         Zn4       1.0000    0.78686   0.50000   0.50000   Biso      1.000     Zn          0.956714 