
##########################################################################
#               Crystallographic Information Format file
#               Produced by PyCifRW module
#
#  This is a CIF file.  CIF has been adopted by the International
#  Union of Crystallography as the standard for data archiving and
#  transmission.
#
#  For information on this file format, follow the CIF links at
#  http://www.iucr.org
##########################################################################

data_image0

_cell_length_a                          12.03
_cell_length_b                          12.8542
_cell_length_c                          12.8542
_cell_angle_alpha                       108.011
_cell_angle_beta                        106.135
_cell_angle_gamma                       106.135
_symmetry_space_group_name_H-M          'P 1'
_symmetry_int_tables_number             1
loop_
  _symmetry_equiv_pos_as_xyz
         'x, y, z' 
loop_
  _atom_site_label
  _atom_site_occupancy
  _atom_site_fract_x
  _atom_site_fract_y
  _atom_site_fract_z
  _atom_site_thermal_displace_type
  _atom_site_B_iso_or_equiv
  _atom_site_type_symbol
  _atom_site_charge
         C1        1.0000    0.42780   0.33063   0.01217   Biso      1.000     C          0.473708  
         C2        1.0000    0.34680   0.06975   0.29985   Biso      1.000     C          0.169535  
         C3        1.0000    0.41890   0.65892   0.44108   Biso      1.000     C          -0.028019           
         C4        1.0000    0.44490   0.70885   0.30295   Biso      1.000     C          0.11976600000000001           
         C5        1.0000    0.25160   0.22150   0.31370   Biso      1.000     C          -0.094014           
         C6        1.0000    0.32810   0.38591   0.00849   Biso      1.000     C          0.48818100000000003           
         C7        1.0000    0.25000   0.41770   0.58230   Biso      1.000     C          0.493227  
         C8        1.0000    0.25000   0.34340   0.65660   Biso      1.000     C          0.463491  
         C9        1.0000    0.21640   0.69620   0.67500   Biso      1.000     C          -0.045146           
         C10       1.0000    0.71640   0.67500   0.69620   Biso      1.000     C          -0.045146           
         C11       1.0000    0.67240   0.05892   0.60148   Biso      1.000     C          -0.156081           
         C12       1.0000    0.59390   0.98821   0.75919   Biso      1.000     C          -0.177457           
         C13       1.0000    0.57080   0.08065   0.73695   Biso      1.000     C          -0.136757           
         C14       1.0000    0.69270   0.96522   0.62238   Biso      1.000     C          -0.14568299999999998          
         C15       1.0000    0.61120   0.11561   0.65739   Biso      1.000     C          0.154937  
         C16       1.0000    0.59030   0.75049   0.73931   Biso      1.000     C          0.10040700000000001           
         C17       1.0000    0.57220   0.66937   0.98783   Biso      1.000     C          0.473709  
         C18       1.0000    0.24840   0.68630   0.77850   Biso      1.000     C          -0.093985           
         C19       1.0000    0.65320   0.93025   0.70015   Biso      1.000     C          0.16955   
         C20       1.0000    0.10610   0.54513   0.24367   Biso      1.000     C          -0.13192  
         C21       1.0000    0.39390   0.75633   0.45487   Biso      1.000     C          -0.131891           
         C22       1.0000    0.05510   0.69705   0.29115   Biso      1.000     C          0.11976600000000001           
         C23       1.0000    0.08110   0.55892   0.34108   Biso      1.000     C          -0.027989999999999998         
         C24       1.0000    0.15320   0.70015   0.93025   Biso      1.000     C          0.169534  
         C25       1.0000    0.07220   0.98783   0.66937   Biso      1.000     C          0.47373000000000004           
         C26       1.0000    0.09030   0.73931   0.75049   Biso      1.000     C          0.100406  
         C27       1.0000    0.11120   0.65739   0.11561   Biso      1.000     C          0.154926  
         C28       1.0000    0.19270   0.62238   0.96522   Biso      1.000     C          -0.145674           
         C29       1.0000    0.17240   0.60148   0.05892   Biso      1.000     C          -0.156068           
         C30       1.0000    0.07080   0.73695   0.08065   Biso      1.000     C          -0.136758           
         C31       1.0000    0.40970   0.24951   0.26069   Biso      1.000     C          0.100406  
         C32       1.0000    0.38880   0.88439   0.34261   Biso      1.000     C          0.154926  
         C33       1.0000    0.30730   0.03478   0.37762   Biso      1.000     C          -0.145673           
         C34       1.0000    0.42920   0.91935   0.26305   Biso      1.000     C          -0.136758           
         C35       1.0000    0.40610   0.01179   0.24081   Biso      1.000     C          -0.177451           
         C36       1.0000    0.75000   0.58230   0.41770   Biso      1.000     C          0.493227  
         C37       1.0000    0.32760   0.94108   0.39852   Biso      1.000     C          -0.156068           
         C38       1.0000    0.09390   0.75919   0.98821   Biso      1.000     C          -0.17745  
         C39       1.0000    0.67190   0.61409   0.99151   Biso      1.000     C          0.48818100000000003           
         C40       1.0000    0.60610   0.24367   0.54513   Biso      1.000     C          -0.13192  
         C41       1.0000    0.55510   0.29115   0.69705   Biso      1.000     C          0.11976600000000001           
         C42       1.0000    0.75000   0.65660   0.34340   Biso      1.000     C          0.463491  
         C43       1.0000    0.28360   0.32500   0.30380   Biso      1.000     C          -0.045114999999999995         
         C44       1.0000    0.74840   0.77850   0.68630   Biso      1.000     C          -0.093984           
         C45       1.0000    0.91890   0.44108   0.65892   Biso      1.000     C          -0.028019           
         C46       1.0000    0.94490   0.30295   0.70885   Biso      1.000     C          0.11976600000000001           
         C47       1.0000    0.75160   0.31370   0.22150   Biso      1.000     C          -0.094015           
         C48       1.0000    0.82810   0.00849   0.38591   Biso      1.000     C          0.488179  
         C49       1.0000    0.84680   0.29985   0.06975   Biso      1.000     C          0.169535  
         C50       1.0000    0.92780   0.01217   0.33063   Biso      1.000     C          0.473731  
         C51       1.0000    0.17190   0.99151   0.61409   Biso      1.000     C          0.48818   
         C52       1.0000    0.88880   0.34261   0.88439   Biso      1.000     C          0.154926  
         C53       1.0000    0.80730   0.37762   0.03478   Biso      1.000     C          -0.145673           
         C54       1.0000    0.92920   0.26305   0.91935   Biso      1.000     C          -0.136758           
         C55       1.0000    0.90610   0.24081   0.01179   Biso      1.000     C          -0.17745  
         C56       1.0000    0.82760   0.39852   0.94108   Biso      1.000     C          -0.156068           
         C57       1.0000    0.58110   0.34108   0.55892   Biso      1.000     C          -0.027989999999999998         
         C58       1.0000    0.78360   0.30380   0.32500   Biso      1.000     C          -0.045114999999999995         
         C59       1.0000    0.90970   0.26069   0.24951   Biso      1.000     C          0.100406  
         C60       1.0000    0.89390   0.45487   0.75633   Biso      1.000     C          -0.131891           
         H1        1.0000    0.03800   0.76030   0.29370   Biso      1.000     H          0.112429  
         H2        1.0000    0.23000   0.58220   0.92580   Biso      1.000     H          0.139466  
         H3        1.0000    0.25100   0.68100   0.61900   Biso      1.000     H          0.11991700000000001           
         H4        1.0000    0.13200   0.49560   0.20640   Biso      1.000     H          0.13363599999999998           
         H5        1.0000    0.07000   0.81200   0.96400   Biso      1.000     H          0.13270099999999999           
         H6        1.0000    0.02600   0.77400   0.12000   Biso      1.000     H          0.13451400000000002           
         H7        1.0000    0.18400   0.18260   0.33540   Biso      1.000     H          0.133209  
         H8        1.0000    0.41900   0.61290   0.48510   Biso      1.000     H          0.11876099999999999           
         H9        1.0000    0.47500   0.24160   0.24040   Biso      1.000     H          0.101815  
         H10       1.0000    0.08100   0.51490   0.38710   Biso      1.000     H          0.11875899999999999           
         H11       1.0000    0.46200   0.70630   0.23970   Biso      1.000     H          0.112429  
         H12       1.0000    0.27000   0.07420   0.41780   Biso      1.000     H          0.139465  
         H13       1.0000    0.24900   0.38100   0.31900   Biso      1.000     H          0.11991500000000001           
         H14       1.0000    0.36800   0.79360   0.50440   Biso      1.000     H          0.133633  
         H15       1.0000    0.43000   0.03600   0.18800   Biso      1.000     H          0.13270099999999999           
         H16       1.0000    0.47400   0.88000   0.22600   Biso      1.000     H          0.13451400000000002           
         H17       1.0000    0.30100   0.91410   0.44990   Biso      1.000     H          0.12648900000000002           
         H18       1.0000    0.02500   0.75960   0.75840   Biso      1.000     H          0.101815  
         H19       1.0000    0.68400   0.33540   0.18260   Biso      1.000     H          0.133209  
         H20       1.0000    0.31600   0.66460   0.81740   Biso      1.000     H          0.133207  
         H21       1.0000    0.52600   0.12000   0.77400   Biso      1.000     H          0.13451400000000002           
         H22       1.0000    0.57000   0.96400   0.81200   Biso      1.000     H          0.132702  
         H23       1.0000    0.63200   0.20640   0.49560   Biso      1.000     H          0.13363599999999998           
         H24       1.0000    0.75100   0.61900   0.68100   Biso      1.000     H          0.11991700000000001           
         H25       1.0000    0.73000   0.92580   0.58220   Biso      1.000     H          0.139466  
         H26       1.0000    0.53800   0.29370   0.76030   Biso      1.000     H          0.112429  
         H27       1.0000    0.58100   0.38710   0.51490   Biso      1.000     H          0.11875899999999999           
         H28       1.0000    0.52500   0.75840   0.75960   Biso      1.000     H          0.101814  
         H29       1.0000    0.19900   0.55010   0.08590   Biso      1.000     H          0.12648900000000002           
         H30       1.0000    0.69900   0.08590   0.55010   Biso      1.000     H          0.12649000000000002           
         H31       1.0000    0.97400   0.22600   0.88000   Biso      1.000     H          0.13451400000000002           
         H32       1.0000    0.93000   0.18800   0.03600   Biso      1.000     H          0.13270099999999999           
         H33       1.0000    0.86800   0.50440   0.79360   Biso      1.000     H          0.133634  
         H34       1.0000    0.77000   0.41780   0.07420   Biso      1.000     H          0.139467  
         H35       1.0000    0.96200   0.23970   0.70630   Biso      1.000     H          0.112429  
         H36       1.0000    0.91900   0.48510   0.61290   Biso      1.000     H          0.11876099999999999           
         H37       1.0000    0.97500   0.24040   0.24160   Biso      1.000     H          0.101815  
         H38       1.0000    0.80100   0.44990   0.91410   Biso      1.000     H          0.12648900000000002           
         H39       1.0000    0.81600   0.81740   0.66460   Biso      1.000     H          0.133207  
         H40       1.0000    0.74900   0.31900   0.38100   Biso      1.000     H          0.119914  
         N1        1.0000    0.04830   0.65456   0.37064   Biso      1.000     N          -0.271543           
         N2        1.0000    0.16630   0.71365   0.82735   Biso      1.000     N          0.010242  
         N3        1.0000    0.09030   0.63441   0.21199   Biso      1.000     N          0.027393999999999998          
         N4        1.0000    0.45170   0.62936   0.34544   Biso      1.000     N          -0.27154  
         N5        1.0000    0.38330   0.34331   0.27029   Biso      1.000     N          -0.261357           
         N6        1.0000    0.33370   0.17265   0.28635   Biso      1.000     N          0.010244  
         N7        1.0000    0.40970   0.78801   0.36559   Biso      1.000     N          0.027392000000000003          
         N8        1.0000    0.59030   0.21199   0.63441   Biso      1.000     N          0.027393  
         N9        1.0000    0.66630   0.82735   0.71365   Biso      1.000     N          0.010241  
         N10       1.0000    0.61670   0.65669   0.72971   Biso      1.000     N          -0.261354           
         N11       1.0000    0.90970   0.36559   0.78801   Biso      1.000     N          0.027392000000000003          
         N12       1.0000    0.83370   0.28635   0.17265   Biso      1.000     N          0.010244  
         N13       1.0000    0.88330   0.27029   0.34331   Biso      1.000     N          -0.261357           
         N14       1.0000    0.95170   0.34544   0.62936   Biso      1.000     N          -0.27154  
         N15       1.0000    0.11670   0.72971   0.65669   Biso      1.000     N          -0.261353           
         N16       1.0000    0.54830   0.37064   0.65456   Biso      1.000     N          -0.271543           
         O1        1.0000    0.35100   0.36869   0.73915   Biso      1.000     O          -0.49850200000000006          
         O2        1.0000    0.85100   0.73915   0.36869   Biso      1.000     O          -0.49850200000000006          
         O3        1.0000    0.64750   0.50104   0.38958   Biso      1.000     O          -0.5145350000000001           
         O4        1.0000    0.64900   0.63131   0.26085   Biso      1.000     O          -0.49850200000000006          
         O5        1.0000    0.09020   0.08372   0.74996   Biso      1.000     O          -0.532083           
         O6        1.0000    0.15130   0.89783   0.53263   Biso      1.000     O          -0.503837           
         O7        1.0000    0.98370   0.89008   0.63038   Biso      1.000     O          -0.508959           
         O8        1.0000    0.40980   0.25004   0.91628   Biso      1.000     O          -0.532066           
         O9        1.0000    0.23570   0.34380   0.91176   Biso      1.000     O          -0.5117520000000001           
         O10       1.0000    0.85250   0.61042   0.49896   Biso      1.000     O          -0.5145350000000001           
         O11       1.0000    0.26430   0.08824   0.65620   Biso      1.000     O          -0.5117510000000001           
         O12       1.0000    0.51630   0.36962   0.10992   Biso      1.000     O          -0.508953           
         O13       1.0000    0.76430   0.65620   0.08824   Biso      1.000     O          -0.5117510000000001           
         O14       1.0000    0.34870   0.46737   0.10217   Biso      1.000     O          -0.503837           
         O15       1.0000    0.35250   0.49896   0.61042   Biso      1.000     O          -0.5145350000000001           
         O16       1.0000    0.14900   0.26085   0.63131   Biso      1.000     O          -0.49850200000000006          
         O17       1.0000    0.14750   0.38958   0.50104   Biso      1.000     O          -0.5145350000000001           
         O18       1.0000    0.48370   0.63038   0.89008   Biso      1.000     O          -0.508954           
         O19       1.0000    0.65130   0.53263   0.89783   Biso      1.000     O          -0.503837           
         O20       1.0000    0.59020   0.74996   0.08372   Biso      1.000     O          -0.532066           
         O21       1.0000    0.01630   0.10992   0.36962   Biso      1.000     O          -0.508959           
         O22       1.0000    0.84870   0.10217   0.46737   Biso      1.000     O          -0.503837           
         O23       1.0000    0.73570   0.91176   0.34380   Biso      1.000     O          -0.5117510000000001           
         O24       1.0000    0.90980   0.91628   0.25004   Biso      1.000     O          -0.532083           
         Zn1       1.0000    0.50952   0.51123   0.74519   Biso      1.000     Zn          0.789758  
         Zn2       1.0000    0.75000   0.78027   0.21973   Biso      1.000     Zn          0.904651  
         Zn3       1.0000    0.49048   0.48877   0.25481   Biso      1.000     Zn          0.789758  
         Zn4       1.0000    0.00952   0.74519   0.51123   Biso      1.000     Zn          0.78976   
         Zn5       1.0000    0.25000   0.21973   0.78027   Biso      1.000     Zn          0.904651  
         Zn6       1.0000    0.99048   0.25481   0.48877   Biso      1.000     Zn          0.78976 