
##########################################################################
#               Crystallographic Information Format file
#               Produced by PyCifRW module
#
#  This is a CIF file.  CIF has been adopted by the International
#  Union of Crystallography as the standard for data archiving and
#  transmission.
#
#  For information on this file format, follow the CIF links at
#  http://www.iucr.org
##########################################################################

data_image0

_cell_length_a                          15.169
_cell_length_b                          16.019
_cell_length_c                          8.866
_cell_angle_alpha                       90
_cell_angle_beta                        95.73
_cell_angle_gamma                       90
_symmetry_space_group_name_H-M          'P 1'
_symmetry_int_tables_number             1
loop_
  _symmetry_equiv_pos_as_xyz
         'x, y, z' 
loop_
  _atom_site_label
  _atom_site_occupancy
  _atom_site_fract_x
  _atom_site_fract_y
  _atom_site_fract_z
  _atom_site_thermal_displace_type
  _atom_site_B_iso_or_equiv
  _atom_site_type_symbol
  _atom_site_charge
         C1        1.0000    0.82880   0.95390   0.45210   Biso      1.000     C          0.012858000000000001          
         C2        1.0000    0.69160   0.25580   0.24800   Biso      1.000     C          0.000571  
         C3        1.0000    0.98450   0.19230   0.55370   Biso      1.000     C          -0.001655           
         C4        1.0000    0.32880   0.54610   0.95210   Biso      1.000     C          0.012858000000000001          
         C5        1.0000    0.32010   0.73280   0.16500   Biso      1.000     C          0.018862  
         C6        1.0000    0.80840   0.75580   0.25200   Biso      1.000     C          0.000571  
         C7        1.0000    0.51550   0.69230   0.94630   Biso      1.000     C          -0.001655           
         C8        1.0000    0.17990   0.23280   0.33500   Biso      1.000     C          0.018862  
         C9        1.0000    0.82010   0.76720   0.66500   Biso      1.000     C          0.018862  
         C10       1.0000    0.30840   0.74420   0.75200   Biso      1.000     C          0.000571  
         C11       1.0000    0.01550   0.80770   0.44630   Biso      1.000     C          -0.001655           
         C12       1.0000    0.17120   0.04610   0.54790   Biso      1.000     C          0.012858000000000001          
         C13       1.0000    0.48450   0.30770   0.05370   Biso      1.000     C          -0.001655           
         C14       1.0000    0.67120   0.45390   0.04790   Biso      1.000     C          0.012858000000000001          
         C15       1.0000    0.67990   0.26720   0.83500   Biso      1.000     C          0.018862  
         C16       1.0000    0.19160   0.24420   0.74800   Biso      1.000     C          0.000571  
         Cd1       1.0000    0.62969   0.32092   0.04285   Biso      1.000     Cd          0.408945  
         Cd2       1.0000    0.23355   0.85213   0.43228   Biso      1.000     Cd          1.017672  
         Cd3       1.0000    0.73355   0.64787   0.93228   Biso      1.000     Cd          1.017672  
         Cd4       1.0000    0.76645   0.14787   0.56772   Biso      1.000     Cd          1.017672  
         Cd5       1.0000    0.37031   0.67908   0.95715   Biso      1.000     Cd          0.408945  
         Cd6       1.0000    0.26645   0.35213   0.06772   Biso      1.000     Cd          1.017672  
         Cd7       1.0000    0.87031   0.82092   0.45715   Biso      1.000     Cd          0.408945  
         Cd8       1.0000    0.12969   0.17908   0.54285   Biso      1.000     Cd          0.408945  
         N1        1.0000    0.19220   0.97900   0.54070   Biso      1.000     N          -0.366438           
         N2        1.0000    0.21080   0.26180   0.23740   Biso      1.000     N          -0.364848           
         N3        1.0000    0.71830   0.22000   0.35390   Biso      1.000     N          -0.36435700000000004          
         N4        1.0000    0.91060   0.19250   0.56470   Biso      1.000     N          -0.36161  
         N5        1.0000    0.41060   0.30750   0.06470   Biso      1.000     N          -0.36161  
         N6        1.0000    0.08940   0.80750   0.43530   Biso      1.000     N          -0.36161  
         N7        1.0000    0.71080   0.23820   0.73740   Biso      1.000     N          -0.364847           
         N8        1.0000    0.69220   0.52100   0.04070   Biso      1.000     N          -0.366438           
         N9        1.0000    0.28920   0.76180   0.26260   Biso      1.000     N          -0.364848           
         N10       1.0000    0.78170   0.72000   0.14610   Biso      1.000     N          -0.36435700000000004          
         N11       1.0000    0.58940   0.69250   0.93530   Biso      1.000     N          -0.36161  
         N12       1.0000    0.80780   0.02100   0.45930   Biso      1.000     N          -0.366438           
         N13       1.0000    0.78920   0.73820   0.76260   Biso      1.000     N          -0.364847           
         N14       1.0000    0.28170   0.78000   0.64610   Biso      1.000     N          -0.36435700000000004          
         N15       1.0000    0.21830   0.28000   0.85390   Biso      1.000     N          -0.36435700000000004          
         N16       1.0000    0.30780   0.47900   0.95930   Biso      1.000     N          -0.366438 