
##########################################################################
#               Crystallographic Information Format file
#               Produced by PyCifRW module
#
#  This is a CIF file.  CIF has been adopted by the International
#  Union of Crystallography as the standard for data archiving and
#  transmission.
#
#  For information on this file format, follow the CIF links at
#  http://www.iucr.org
##########################################################################

data_image0

_cell_length_a                          7.7373
_cell_length_b                          16.1203
_cell_length_c                          15.2135
_cell_angle_alpha                       90
_cell_angle_beta                        90
_cell_angle_gamma                       90
_symmetry_space_group_name_H-M          'P 1'
_symmetry_int_tables_number             1
loop_
  _symmetry_equiv_pos_as_xyz
         'x, y, z' 
loop_
  _atom_site_label
  _atom_site_occupancy
  _atom_site_fract_x
  _atom_site_fract_y
  _atom_site_fract_z
  _atom_site_thermal_displace_type
  _atom_site_B_iso_or_equiv
  _atom_site_type_symbol
  _atom_site_charge
         C1        1.0000    0.17520   0.50760   0.38760   Biso      1.000     C          0.304425  
         C2        1.0000    0.67330   0.50280   0.53850   Biso      1.000     C          0.311746  
         C3        1.0000    0.85910   0.74690   0.38660   Biso      1.000     C          0.317182  
         C4        1.0000    0.69180   0.99140   0.20720   Biso      1.000     C          0.320767  
         C5        1.0000    0.67520   0.99240   0.88760   Biso      1.000     C          0.304425  
         C6        1.0000    0.17330   0.99720   0.03850   Biso      1.000     C          0.311745  
         C7        1.0000    0.35910   0.75310   0.88660   Biso      1.000     C          0.317182  
         C8        1.0000    0.30820   0.00860   0.70720   Biso      1.000     C          0.320767  
         C9        1.0000    0.32480   0.00760   0.38760   Biso      1.000     C          0.304425  
         C10       1.0000    0.82670   0.00280   0.53850   Biso      1.000     C          0.311745  
         C11       1.0000    0.64090   0.24690   0.38660   Biso      1.000     C          0.317182  
         C12       1.0000    0.32670   0.49720   0.03850   Biso      1.000     C          0.311745  
         C13       1.0000    0.82480   0.49240   0.88760   Biso      1.000     C          0.304425  
         C14       1.0000    0.80820   0.49140   0.20720   Biso      1.000     C          0.320767  
         C15       1.0000    0.14090   0.25310   0.88660   Biso      1.000     C          0.317182  
         C16       1.0000    0.19180   0.50860   0.70720   Biso      1.000     C          0.320767  
         Hg1       1.0000    0.04699   0.06627   0.85315   Biso      1.000     Hg          0.355274  
         Hg2       1.0000    0.95301   0.93373   0.35315   Biso      1.000     Hg          0.355274  
         Hg3       1.0000    0.45301   0.56627   0.85315   Biso      1.000     Hg          0.355274  
         Hg4       1.0000    0.54699   0.43373   0.35315   Biso      1.000     Hg          0.355274  
         Mn1       1.0000    0.48210   0.12634   0.54802   Biso      1.000     Mn          1.0354889999999999  
         Mn2       1.0000    0.98210   0.37366   0.04802   Biso      1.000     Mn          1.035488  
         Mn3       1.0000    0.01790   0.62634   0.54802   Biso      1.000     Mn          1.0354889999999999  
         Mn4       1.0000    0.51790   0.87366   0.04802   Biso      1.000     Mn          1.0354889999999999  
         N1        1.0000    0.37370   0.04640   0.44480   Biso      1.000     N          -0.45530200000000004          
         N2        1.0000    0.35320   0.04930   0.65150   Biso      1.000     N          -0.47568699999999997          
         N3        1.0000    0.39960   0.79360   0.94450   Biso      1.000     N          -0.473264           
         N4        1.0000    0.28000   0.94990   0.05230   Biso      1.000     N          -0.46201899999999996          
         N5        1.0000    0.62630   0.95360   0.94480   Biso      1.000     N          -0.45530200000000004          
         N6        1.0000    0.64680   0.95070   0.15150   Biso      1.000     N          -0.47568699999999997          
         N7        1.0000    0.89960   0.70640   0.44450   Biso      1.000     N          -0.473264           
         N8        1.0000    0.78000   0.55010   0.55230   Biso      1.000     N          -0.46201899999999996          
         N9        1.0000    0.12630   0.54640   0.44480   Biso      1.000     N          -0.45530200000000004          
         N10       1.0000    0.14680   0.54930   0.65150   Biso      1.000     N          -0.47568699999999997          
         N11       1.0000    0.10040   0.29360   0.94450   Biso      1.000     N          -0.473264           
         N12       1.0000    0.22000   0.44990   0.05230   Biso      1.000     N          -0.46201899999999996          
         N13       1.0000    0.72000   0.05010   0.55230   Biso      1.000     N          -0.46201899999999996          
         N14       1.0000    0.60040   0.20640   0.44450   Biso      1.000     N          -0.473264           
         N15       1.0000    0.85320   0.45070   0.15150   Biso      1.000     N          -0.47568699999999997          
         N16       1.0000    0.87370   0.45360   0.94480   Biso      1.000     N          -0.455301           
         S1        1.0000    0.74100   0.54810   0.29000   Biso      1.000     S          -0.182196           
         S2        1.0000    0.70180   0.30430   0.30240   Biso      1.000     S          -0.218824           
         S3        1.0000    0.97590   0.93400   0.52020   Biso      1.000     S          -0.18521700000000002          
         S4        1.0000    0.26070   0.95440   0.30050   Biso      1.000     S          -0.192373           
         S5        1.0000    0.29820   0.69570   0.80240   Biso      1.000     S          -0.218824           
         S6        1.0000    0.02410   0.06600   0.02020   Biso      1.000     S          -0.18521700000000002          
         S7        1.0000    0.76070   0.54560   0.80050   Biso      1.000     S          -0.192373           
         S8        1.0000    0.73930   0.04560   0.80050   Biso      1.000     S          -0.192373           
         S9        1.0000    0.79820   0.80430   0.30240   Biso      1.000     S          -0.218824           
         S10       1.0000    0.52410   0.43400   0.52020   Biso      1.000     S          -0.185218           
         S11       1.0000    0.23930   0.45440   0.30050   Biso      1.000     S          -0.192373           
         S12       1.0000    0.25900   0.45190   0.79000   Biso      1.000     S          -0.182195           
         S13       1.0000    0.20180   0.19570   0.80240   Biso      1.000     S          -0.218825           
         S14       1.0000    0.47590   0.56600   0.02020   Biso      1.000     S          -0.18521700000000002          
         S15       1.0000    0.75900   0.04810   0.29000   Biso      1.000     S          -0.182195           
         S16       1.0000    0.24100   0.95190   0.79000   Biso      1.000     S          -0.182195 