
##########################################################################
#               Crystallographic Information Format file
#               Produced by PyCifRW module
#
#  This is a CIF file.  CIF has been adopted by the International
#  Union of Crystallography as the standard for data archiving and
#  transmission.
#
#  For information on this file format, follow the CIF links at
#  http://www.iucr.org
##########################################################################

data_image0

_cell_length_a                          10.8924
_cell_length_b                          10.9631
_cell_length_c                          16.774
_cell_angle_alpha                       90
_cell_angle_beta                        90
_cell_angle_gamma                       102.254
_symmetry_space_group_name_H-M          'P 1'
_symmetry_int_tables_number             1
loop_
  _symmetry_equiv_pos_as_xyz
         'x, y, z' 
loop_
  _atom_site_label
  _atom_site_occupancy
  _atom_site_fract_x
  _atom_site_fract_y
  _atom_site_fract_z
  _atom_site_thermal_displace_type
  _atom_site_B_iso_or_equiv
  _atom_site_type_symbol
  _atom_site_charge
         C1        1.0000    0.73250   0.34380   0.38960   Biso      1.000     C          -0.049280000000000004         
         C2        1.0000    0.23250   0.84380   0.11040   Biso      1.000     C          -0.049279           
         C3        1.0000    0.11540   0.87460   0.09830   Biso      1.000     C          -0.08456  
         C4        1.0000    0.02870   0.74340   0.20680   Biso      1.000     C          -0.103789           
         C5        1.0000    0.34150   0.89530   0.05460   Biso      1.000     C          0.729217  
         C6        1.0000    0.88750   0.85740   0.13480   Biso      1.000     C          0.611117  
         C7        1.0000    0.65700   0.12140   0.21200   Biso      1.000     C          0.589522  
         C8        1.0000    0.64520   0.21220   0.27840   Biso      1.000     C          -0.015436000000000002         
         C9        1.0000    0.74510   0.26320   0.32790   Biso      1.000     C          -0.11343800000000001          
         C10       1.0000    0.61540   0.37460   0.40170   Biso      1.000     C          -0.08455800000000001          
         C11       1.0000    0.51120   0.32410   0.35390   Biso      1.000     C          -0.014003999999999999         
         C12       1.0000    0.24510   0.76320   0.17210   Biso      1.000     C          -0.113443           
         C13       1.0000    0.52870   0.24340   0.29320   Biso      1.000     C          -0.10378599999999999          
         C14       1.0000    0.38750   0.35740   0.36520   Biso      1.000     C          0.611118  
         C15       1.0000    0.84300   0.37860   0.71200   Biso      1.000     C          0.589526  
         C16       1.0000    0.85480   0.28780   0.77840   Biso      1.000     C          -0.015433           
         C17       1.0000    0.75490   0.23680   0.82790   Biso      1.000     C          -0.113443           
         C18       1.0000    0.76750   0.15620   0.88960   Biso      1.000     C          -0.049277999999999995         
         C19       1.0000    0.88460   0.12540   0.90170   Biso      1.000     C          -0.084561           
         C20       1.0000    0.98880   0.17590   0.85390   Biso      1.000     C          -0.014006999999999999         
         C21       1.0000    0.97130   0.25660   0.79320   Biso      1.000     C          -0.10379000000000001          
         C22       1.0000    0.65850   0.10470   0.94540   Biso      1.000     C          0.729233  
         C23       1.0000    0.11250   0.14260   0.86520   Biso      1.000     C          0.611119  
         C24       1.0000    0.84150   0.39530   0.44540   Biso      1.000     C          0.729218  
         C25       1.0000    0.14520   0.71220   0.22160   Biso      1.000     C          -0.015430000000000001         
         C26       1.0000    0.01120   0.82410   0.14610   Biso      1.000     C          -0.014006999999999999         
         C27       1.0000    0.61250   0.64260   0.63480   Biso      1.000     C          0.611119  
         C28       1.0000    0.15850   0.60470   0.55460   Biso      1.000     C          0.72922   
         C29       1.0000    0.47130   0.75660   0.70680   Biso      1.000     C          -0.10378699999999999          
         C30       1.0000    0.48880   0.67590   0.64610   Biso      1.000     C          -0.014005000000000002         
         C31       1.0000    0.38460   0.62540   0.59830   Biso      1.000     C          -0.084563           
         C32       1.0000    0.26750   0.65620   0.61040   Biso      1.000     C          -0.049283           
         C33       1.0000    0.25490   0.73680   0.67210   Biso      1.000     C          -0.11344000000000001          
         C34       1.0000    0.35480   0.78780   0.72160   Biso      1.000     C          -0.015428           
         C35       1.0000    0.34300   0.87860   0.78800   Biso      1.000     C          0.5895239999999999  
         C36       1.0000    0.15700   0.62140   0.28800   Biso      1.000     C          0.589526  
         H1        1.0000    0.17730   0.75720   0.68060   Biso      1.000     H          0.11004000000000001           
         H2        1.0000    0.39350   0.57020   0.55770   Biso      1.000     H          0.136231  
         H3        1.0000    0.53930   0.79130   0.73900   Biso      1.000     H          0.132441  
         H4        1.0000    0.32270   0.74280   0.18060   Biso      1.000     H          0.110036  
         H5        1.0000    0.10650   0.92980   0.05770   Biso      1.000     H          0.136232  
         H6        1.0000    0.82270   0.24280   0.31940   Biso      1.000     H          0.11004000000000001           
         H7        1.0000    0.96070   0.70870   0.23900   Biso      1.000     H          0.132439  
         H8        1.0000    0.46070   0.20870   0.26100   Biso      1.000     H          0.13244   
         H9        1.0000    0.67730   0.25720   0.81940   Biso      1.000     H          0.11003900000000001           
         H10       1.0000    0.89350   0.07020   0.94230   Biso      1.000     H          0.136232  
         H11       1.0000    0.03930   0.29130   0.76100   Biso      1.000     H          0.132439  
         H12       1.0000    0.60650   0.42980   0.44230   Biso      1.000     H          0.136233  
         O1        1.0000    0.44280   0.86500   0.06810   Biso      1.000     O          -0.721342           
         O2        1.0000    0.75620   0.08270   0.20410   Biso      1.000     O          -0.621951           
         O3        1.0000    0.56320   0.08100   0.16900   Biso      1.000     O          -0.642406           
         O4        1.0000    0.30210   0.32020   0.31560   Biso      1.000     O          -0.6822020000000001           
         O5        1.0000    0.37030   0.42240   0.42420   Biso      1.000     O          -0.637987           
         O6        1.0000    0.12970   0.07760   0.92420   Biso      1.000     O          -0.637992           
         O7        1.0000    0.94280   0.36500   0.43190   Biso      1.000     O          -0.721344           
         O8        1.0000    0.19790   0.17980   0.81560   Biso      1.000     O          -0.682203           
         O9        1.0000    0.93680   0.41900   0.66900   Biso      1.000     O          -0.642432           
         O10       1.0000    0.31820   0.96000   0.99780   Biso      1.000     O          -0.678711           
         O11       1.0000    0.74380   0.41730   0.70410   Biso      1.000     O          -0.621942           
         O12       1.0000    0.81820   0.46000   0.50220   Biso      1.000     O          -0.678713           
         O13       1.0000    0.87030   0.92240   0.07580   Biso      1.000     O          -0.637946           
         O14       1.0000    0.55720   0.13500   0.93190   Biso      1.000     O          -0.721356           
         O15       1.0000    0.06320   0.58100   0.33100   Biso      1.000     O          -0.6424310000000001           
         O16       1.0000    0.25620   0.58270   0.29590   Biso      1.000     O          -0.6219439999999999           
         O17       1.0000    0.05720   0.63500   0.56810   Biso      1.000     O          -0.721344           
         O18       1.0000    0.18180   0.54000   0.49780   Biso      1.000     O          -0.678717           
         O19       1.0000    0.62970   0.57760   0.57580   Biso      1.000     O          -0.637993           
         O20       1.0000    0.69790   0.67980   0.68440   Biso      1.000     O          -0.6822   
         O21       1.0000    0.43680   0.91900   0.83100   Biso      1.000     O          -0.642426           
         O22       1.0000    0.24380   0.91730   0.79590   Biso      1.000     O          -0.621943           
         O23       1.0000    0.68180   0.04000   0.00220   Biso      1.000     O          -0.678739           
         O24       1.0000    0.80210   0.82020   0.18440   Biso      1.000     O          -0.682207           
         Tb1       1.0000    0.84901   0.58321   0.61236   Biso      1.000     Tb          2.056552  
         Tb2       1.0000    0.65099   0.91679   0.11237   Biso      1.000     Tb          2.056539  
         Tb3       1.0000    0.15099   0.41679   0.38764   Biso      1.000     Tb          2.056554  
         Tb4       1.0000    0.34901   0.08321   0.88764   Biso      1.000     Tb          2.056552 