
##########################################################################
#               Crystallographic Information Format file
#               Produced by PyCifRW module
#
#  This is a CIF file.  CIF has been adopted by the International
#  Union of Crystallography as the standard for data archiving and
#  transmission.
#
#  For information on this file format, follow the CIF links at
#  http://www.iucr.org
##########################################################################

data_image0

_cell_length_a                          20.0164
_cell_length_b                          7.3972
_cell_length_c                          25.712
_cell_angle_alpha                       90
_cell_angle_beta                        105.093
_cell_angle_gamma                       90
_symmetry_space_group_name_H-M          'P 1'
_symmetry_int_tables_number             1
loop_
  _symmetry_equiv_pos_as_xyz
         'x, y, z' 
loop_
  _atom_site_label
  _atom_site_occupancy
  _atom_site_fract_x
  _atom_site_fract_y
  _atom_site_fract_z
  _atom_site_thermal_displace_type
  _atom_site_B_iso_or_equiv
  _atom_site_type_symbol
  _atom_site_charge
         C1        1.0000    0.07403   0.97604   0.09608   Biso      1.000     C          -0.143379           
         C2        1.0000    0.32596   0.58417   0.99877   Biso      1.000     C          -0.120992           
         C3        1.0000    0.55209   0.39069   0.55786   Biso      1.000     C          0.146013  
         C4        1.0000    0.70175   0.33897   0.90315   Biso      1.000     C          -0.184203           
         C5        1.0000    0.72269   0.50260   0.92914   Biso      1.000     C          -0.143402           
         C6        1.0000    0.62149   0.48937   0.64491   Biso      1.000     C          -0.166546           
         C7        1.0000    0.64117   0.64368   0.68221   Biso      1.000     C          0.647953  
         C8        1.0000    0.33276   0.78742   0.07199   Biso      1.000     C          0.343922  
         C9        1.0000    0.92597   0.02396   0.90392   Biso      1.000     C          -0.143381           
         C10       1.0000    0.85023   0.81185   0.84321   Biso      1.000     C          0.355986  
         C11       1.0000    0.85883   0.14368   0.81779   Biso      1.000     C          0.647953  
         C12       1.0000    0.87851   0.98937   0.85509   Biso      1.000     C          -0.166545           
         C13       1.0000    0.77731   0.00260   0.57086   Biso      1.000     C          -0.143404           
         C14       1.0000    0.79825   0.83897   0.59685   Biso      1.000     C          -0.184201           
         C15       1.0000    0.94791   0.89069   0.94214   Biso      1.000     C          0.146015  
         C16       1.0000    0.79055   0.04017   0.52153   Biso      1.000     C          0.150447  
         C17       1.0000    0.87511   0.67860   0.88235   Biso      1.000     C          -0.23355  
         C18       1.0000    0.28369   0.70075   0.14967   Biso      1.000     C          0.676609  
         C19       1.0000    0.42226   0.78415   0.43010   Biso      1.000     C          -0.09837  
         C20       1.0000    0.78369   0.20075   0.14967   Biso      1.000     C          0.676609  
         C21       1.0000    0.83276   0.28742   0.07199   Biso      1.000     C          0.343922  
         C22       1.0000    0.82596   0.08417   0.99877   Biso      1.000     C          -0.12099  
         C23       1.0000    0.65246   0.25379   0.97640   Biso      1.000     C          -0.211458           
         C24       1.0000    0.57774   0.21585   0.56990   Biso      1.000     C          -0.098367           
         C25       1.0000    0.62489   0.17860   0.61765   Biso      1.000     C          -0.233543           
         C26       1.0000    0.34754   0.74621   0.02360   Biso      1.000     C          -0.21145  
         C27       1.0000    0.42597   0.47604   0.40392   Biso      1.000     C          -0.143379           
         C28       1.0000    0.35023   0.68815   0.34321   Biso      1.000     C          0.355986  
         C29       1.0000    0.35883   0.35632   0.31779   Biso      1.000     C          0.647953  
         C30       1.0000    0.37851   0.51063   0.35509   Biso      1.000     C          -0.166545           
         C31       1.0000    0.27731   0.49740   0.07086   Biso      1.000     C          -0.143404           
         C32       1.0000    0.29825   0.66103   0.09685   Biso      1.000     C          -0.184201           
         C33       1.0000    0.44791   0.60931   0.44214   Biso      1.000     C          0.14601   
         C34       1.0000    0.29055   0.45983   0.02153   Biso      1.000     C          0.150451  
         C35       1.0000    0.92226   0.71585   0.93010   Biso      1.000     C          -0.09836  
         C36       1.0000    0.84754   0.75379   0.52360   Biso      1.000     C          -0.211458           
         C37       1.0000    0.78369   0.79925   0.64967   Biso      1.000     C          0.676609  
         C38       1.0000    0.07403   0.02396   0.59608   Biso      1.000     C          -0.143379           
         C39       1.0000    0.20945   0.04017   0.97847   Biso      1.000     C          0.150452  
         C40       1.0000    0.14977   0.81185   0.65679   Biso      1.000     C          0.355987  
         C41       1.0000    0.14117   0.14368   0.68221   Biso      1.000     C          0.647953  
         C42       1.0000    0.12149   0.98937   0.64491   Biso      1.000     C          -0.166545           
         C43       1.0000    0.22269   0.00260   0.92914   Biso      1.000     C          -0.143404           
         C44       1.0000    0.32596   0.41583   0.49877   Biso      1.000     C          -0.120992           
         C45       1.0000    0.20175   0.83897   0.90315   Biso      1.000     C          -0.184201           
         C46       1.0000    0.12489   0.67860   0.61765   Biso      1.000     C          -0.233549           
         C47       1.0000    0.07774   0.71585   0.56990   Biso      1.000     C          -0.098362           
         C48       1.0000    0.15246   0.75379   0.97640   Biso      1.000     C          -0.211458           
         C49       1.0000    0.21631   0.79925   0.85033   Biso      1.000     C          0.676609  
         C50       1.0000    0.16724   0.71258   0.92801   Biso      1.000     C          0.343924  
         C51       1.0000    0.17404   0.91583   0.00123   Biso      1.000     C          -0.12098  
         C52       1.0000    0.05209   0.89069   0.55786   Biso      1.000     C          0.146009  
         C53       1.0000    0.33276   0.21258   0.57199   Biso      1.000     C          0.343922  
         C54       1.0000    0.28369   0.29925   0.64967   Biso      1.000     C          0.676609  
         C55       1.0000    0.34754   0.25379   0.52360   Biso      1.000     C          -0.21145  
         C56       1.0000    0.83276   0.71258   0.57199   Biso      1.000     C          0.343924  
         C57       1.0000    0.82596   0.91583   0.49877   Biso      1.000     C          -0.120982           
         C58       1.0000    0.64977   0.31185   0.65679   Biso      1.000     C          0.355986  
         C59       1.0000    0.70945   0.54017   0.97847   Biso      1.000     C          0.150447  
         C60       1.0000    0.57403   0.52396   0.59608   Biso      1.000     C          -0.143377           
         C61       1.0000    0.42597   0.52396   0.90392   Biso      1.000     C          -0.143379           
         C62       1.0000    0.29055   0.54017   0.52153   Biso      1.000     C          0.15045   
         C63       1.0000    0.35023   0.31185   0.84321   Biso      1.000     C          0.355987  
         C64       1.0000    0.35883   0.64368   0.81779   Biso      1.000     C          0.647953  
         C65       1.0000    0.37851   0.48937   0.85509   Biso      1.000     C          -0.166545           
         C66       1.0000    0.27731   0.50260   0.57086   Biso      1.000     C          -0.143402           
         C67       1.0000    0.29825   0.33897   0.59685   Biso      1.000     C          -0.184201           
         C68       1.0000    0.44791   0.39069   0.94214   Biso      1.000     C          0.146009  
         C69       1.0000    0.37511   0.17860   0.88235   Biso      1.000     C          -0.233549           
         C70       1.0000    0.42226   0.21585   0.93010   Biso      1.000     C          -0.098363           
         C71       1.0000    0.84754   0.24621   0.02360   Biso      1.000     C          -0.211452           
         C72       1.0000    0.92226   0.28415   0.43010   Biso      1.000     C          -0.098368           
         C73       1.0000    0.37511   0.82140   0.38235   Biso      1.000     C          -0.233542           
         C74       1.0000    0.64977   0.68815   0.15679   Biso      1.000     C          0.355987  
         C75       1.0000    0.66724   0.21258   0.92801   Biso      1.000     C          0.343925  
         C76       1.0000    0.20175   0.16103   0.40315   Biso      1.000     C          -0.184203           
         C77       1.0000    0.62489   0.82140   0.11765   Biso      1.000     C          -0.23355  
         C78       1.0000    0.05209   0.10931   0.05786   Biso      1.000     C          0.146009  
         C79       1.0000    0.12489   0.32140   0.11765   Biso      1.000     C          -0.233549           
         C80       1.0000    0.72269   0.49740   0.42914   Biso      1.000     C          -0.143406           
         C81       1.0000    0.07774   0.28415   0.06990   Biso      1.000     C          -0.098362           
         C82       1.0000    0.15246   0.24621   0.47640   Biso      1.000     C          -0.211458           
         C83       1.0000    0.70175   0.66103   0.40315   Biso      1.000     C          -0.184201           
         C84       1.0000    0.55209   0.60931   0.05786   Biso      1.000     C          0.146013  
         C85       1.0000    0.21631   0.20075   0.35033   Biso      1.000     C          0.676609  
         C86       1.0000    0.16724   0.28742   0.42801   Biso      1.000     C          0.343924  
         C87       1.0000    0.67404   0.58417   0.50123   Biso      1.000     C          -0.12099  
         C88       1.0000    0.66724   0.78742   0.42801   Biso      1.000     C          0.343922  
         C89       1.0000    0.71631   0.70075   0.35033   Biso      1.000     C          0.676609  
         C90       1.0000    0.17404   0.08417   0.50123   Biso      1.000     C          -0.120985           
         C91       1.0000    0.65246   0.74621   0.47640   Biso      1.000     C          -0.211452           
         C92       1.0000    0.71631   0.29925   0.85033   Biso      1.000     C          0.676609  
         C93       1.0000    0.92597   0.97604   0.40392   Biso      1.000     C          -0.143381           
         C94       1.0000    0.67404   0.41583   0.00123   Biso      1.000     C          -0.120982           
         C95       1.0000    0.79055   0.95983   0.02153   Biso      1.000     C          0.150457  
         C96       1.0000    0.87511   0.32140   0.38235   Biso      1.000     C          -0.233543           
         C97       1.0000    0.57403   0.47604   0.09608   Biso      1.000     C          -0.143378           
         C98       1.0000    0.94791   0.10931   0.44214   Biso      1.000     C          0.146016  
         C99       1.0000    0.79825   0.16103   0.09685   Biso      1.000     C          -0.184203           
         C100      1.0000    0.70945   0.45983   0.47847   Biso      1.000     C          0.150459  
         C101      1.0000    0.20945   0.95983   0.47847   Biso      1.000     C          0.150456  
         C102      1.0000    0.14977   0.18815   0.15679   Biso      1.000     C          0.355987  
         C103      1.0000    0.62149   0.51063   0.14491   Biso      1.000     C          -0.166545           
         C104      1.0000    0.14117   0.85632   0.18221   Biso      1.000     C          0.647953  
         C105      1.0000    0.64117   0.35632   0.18221   Biso      1.000     C          0.647953  
         C106      1.0000    0.57774   0.78415   0.06990   Biso      1.000     C          -0.098361           
         C107      1.0000    0.22269   0.99740   0.42914   Biso      1.000     C          -0.143402           
         C108      1.0000    0.12149   0.01063   0.14491   Biso      1.000     C          -0.166545           
         C109      1.0000    0.85023   0.18815   0.34321   Biso      1.000     C          0.355986  
         C110      1.0000    0.85883   0.85632   0.31779   Biso      1.000     C          0.647953  
         C111      1.0000    0.77731   0.99740   0.07086   Biso      1.000     C          -0.143402           
         C112      1.0000    0.87851   0.01063   0.35509   Biso      1.000     C          -0.166545           
         Ce1       1.0000    0.79739   0.53716   0.25106   Biso      1.000     Ce          2.089285  
         Ce2       1.0000    0.20261   0.46284   0.74894   Biso      1.000     Ce          2.089285  
         Ce3       1.0000    0.20261   0.53716   0.24894   Biso      1.000     Ce          2.089285  
         Ce4       1.0000    0.29739   0.96284   0.75106   Biso      1.000     Ce          2.089285  
         Ce5       1.0000    0.29739   0.03716   0.25106   Biso      1.000     Ce          2.089285  
         Ce6       1.0000    0.70261   0.96284   0.74894   Biso      1.000     Ce          2.089285  
         Ce7       1.0000    0.79739   0.46284   0.75106   Biso      1.000     Ce          2.089285  
         Ce8       1.0000    0.70261   0.03716   0.24894   Biso      1.000     Ce          2.089285  
         H1        1.0000    0.55650   0.64030   0.58890   Biso      1.000     H          0.129196  
         H2        1.0000    0.25430   0.58720   0.58660   Biso      1.000     H          0.123834  
         H3        1.0000    0.44350   0.64030   0.91110   Biso      1.000     H          0.129197  
         H4        1.0000    0.35900   0.06080   0.87560   Biso      1.000     H          0.126938  
         H5        1.0000    0.16040   0.46610   0.37700   Biso      1.000     H          0.381703  
         H6        1.0000    0.05650   0.14030   0.58890   Biso      1.000     H          0.129197  
         H7        1.0000    0.43740   0.12350   0.95490   Biso      1.000     H          0.125296  
         H8        1.0000    0.37190   0.17220   0.50800   Biso      1.000     H          0.142396  
         H9        1.0000    0.12810   0.32780   0.49200   Biso      1.000     H          0.142396  
         H10       1.0000    0.33540   0.44230   0.46600   Biso      1.000     H          0.115782  
         H11       1.0000    0.33960   0.03390   0.62300   Biso      1.000     H          0.381703  
         H12       1.0000    0.06260   0.37650   0.04510   Biso      1.000     H          0.125296  
         H13       1.0000    0.14100   0.43920   0.12440   Biso      1.000     H          0.126938  
         H14       1.0000    0.24570   0.08720   0.91340   Biso      1.000     H          0.123832  
         H15       1.0000    0.24570   0.91280   0.41340   Biso      1.000     H          0.123832  
         H16       1.0000    0.14100   0.56080   0.62440   Biso      1.000     H          0.126938  
         H17       1.0000    0.06260   0.62350   0.54510   Biso      1.000     H          0.125296  
         H18       1.0000    0.12810   0.67220   0.99200   Biso      1.000     H          0.142396  
         H19       1.0000    0.05650   0.85970   0.08890   Biso      1.000     H          0.129197  
         H20       1.0000    0.16460   0.94230   0.03400   Biso      1.000     H          0.115782  
         H21       1.0000    0.16460   0.05770   0.53400   Biso      1.000     H          0.115782  
         H22       1.0000    0.55650   0.35970   0.08890   Biso      1.000     H          0.129196  
         H23       1.0000    0.93740   0.37650   0.45490   Biso      1.000     H          0.125297  
         H24       1.0000    0.16040   0.53390   0.87700   Biso      1.000     H          0.381703  
         H25       1.0000    0.56260   0.87650   0.04510   Biso      1.000     H          0.125297  
         H26       1.0000    0.94350   0.14030   0.91110   Biso      1.000     H          0.129196  
         H27       1.0000    0.62810   0.82780   0.49200   Biso      1.000     H          0.142395  
         H28       1.0000    0.74570   0.58720   0.91340   Biso      1.000     H          0.123834  
         H29       1.0000    0.66460   0.55770   0.53400   Biso      1.000     H          0.115782  
         H30       1.0000    0.94350   0.85970   0.41110   Biso      1.000     H          0.129196  
         H31       1.0000    0.64100   0.93920   0.12440   Biso      1.000     H          0.126938  
         H32       1.0000    0.25430   0.41280   0.08660   Biso      1.000     H          0.123834  
         H33       1.0000    0.33540   0.55770   0.96600   Biso      1.000     H          0.115782  
         H34       1.0000    0.66460   0.44230   0.03400   Biso      1.000     H          0.115781  
         H35       1.0000    0.35900   0.93920   0.37560   Biso      1.000     H          0.126938  
         H36       1.0000    0.43740   0.87650   0.45490   Biso      1.000     H          0.125297  
         H37       1.0000    0.66040   0.03390   0.87700   Biso      1.000     H          0.381703  
         H38       1.0000    0.37190   0.82780   0.00800   Biso      1.000     H          0.142396  
         H39       1.0000    0.33960   0.96610   0.12300   Biso      1.000     H          0.381703  
         H40       1.0000    0.74570   0.41280   0.41340   Biso      1.000     H          0.123833  
         H41       1.0000    0.75430   0.08720   0.58660   Biso      1.000     H          0.123834  
         H42       1.0000    0.83960   0.46610   0.12300   Biso      1.000     H          0.381703  
         H43       1.0000    0.83960   0.53390   0.62300   Biso      1.000     H          0.381703  
         H44       1.0000    0.83540   0.94230   0.46600   Biso      1.000     H          0.115781  
         H45       1.0000    0.85900   0.43920   0.37560   Biso      1.000     H          0.126938  
         H46       1.0000    0.87190   0.32780   0.00800   Biso      1.000     H          0.142395  
         H47       1.0000    0.75430   0.91280   0.08660   Biso      1.000     H          0.123832  
         H48       1.0000    0.83540   0.05770   0.96600   Biso      1.000     H          0.115782  
         H49       1.0000    0.85900   0.56080   0.87560   Biso      1.000     H          0.126938  
         H50       1.0000    0.66040   0.96610   0.37700   Biso      1.000     H          0.381703  
         H51       1.0000    0.62810   0.17220   0.99200   Biso      1.000     H          0.142396  
         H52       1.0000    0.56260   0.12350   0.54510   Biso      1.000     H          0.125297  
         H53       1.0000    0.64100   0.06080   0.62440   Biso      1.000     H          0.126937  
         H54       1.0000    0.93740   0.62350   0.95490   Biso      1.000     H          0.125297  
         H55       1.0000    0.44350   0.35970   0.41110   Biso      1.000     H          0.129197  
         H56       1.0000    0.87190   0.67220   0.50800   Biso      1.000     H          0.142396  
         N1        1.0000    0.76928   0.79919   0.99114   Biso      1.000     N          -0.138806           
         N2        1.0000    0.99308   0.08100   0.49429   Biso      1.000     N          -0.138243           
         N3        1.0000    0.50692   0.58100   0.00571   Biso      1.000     N          -0.138243           
         N4        1.0000    0.73072   0.29919   0.50886   Biso      1.000     N          -0.138806           
         N5        1.0000    0.99308   0.91900   0.99429   Biso      1.000     N          -0.138243           
         N6        1.0000    0.00692   0.91900   0.50571   Biso      1.000     N          -0.138171           
         N7        1.0000    0.73072   0.70081   0.00886   Biso      1.000     N          -0.138725           
         N8        1.0000    0.50692   0.41900   0.50571   Biso      1.000     N          -0.138242           
         N9        1.0000    0.23072   0.20081   0.00886   Biso      1.000     N          -0.138806           
         N10       1.0000    0.23072   0.79919   0.50886   Biso      1.000     N          -0.138807           
         N11       1.0000    0.49308   0.58100   0.49429   Biso      1.000     N          -0.138171           
         N12       1.0000    0.26928   0.29919   0.99114   Biso      1.000     N          -0.138725           
         N13       1.0000    0.00692   0.08100   0.00571   Biso      1.000     N          -0.138171           
         N14       1.0000    0.49308   0.41900   0.99429   Biso      1.000     N          -0.138171           
         N15       1.0000    0.76928   0.20081   0.49114   Biso      1.000     N          -0.138724           
         N16       1.0000    0.26928   0.70081   0.49114   Biso      1.000     N          -0.138724           
         O1        1.0000    0.20535   0.63990   0.83246   Biso      1.000     O          -0.717748           
         O2        1.0000    0.10987   0.29187   0.67297   Biso      1.000     O          -0.625807           
         O3        1.0000    0.70535   0.13990   0.83246   Biso      1.000     O          -0.717748           
         O4        1.0000    0.60987   0.79187   0.67297   Biso      1.000     O          -0.625807           
         O5        1.0000    0.69110   0.63058   0.72445   Biso      1.000     O          -0.757522           
         O6        1.0000    0.69700   0.26967   0.70192   Biso      1.000     O          -0.747801           
         O7        1.0000    0.19110   0.13058   0.72445   Biso      1.000     O          -0.757522           
         O8        1.0000    0.23798   0.92369   0.82581   Biso      1.000     O          -0.640863           
         O9        1.0000    0.14794   0.54824   0.90600   Biso      1.000     O          -0.48677  
         O10       1.0000    0.19700   0.76967   0.70192   Biso      1.000     O          -0.747801           
         O11       1.0000    0.35206   0.95176   0.09400   Biso      1.000     O          -0.486769           
         O12       1.0000    0.26202   0.42369   0.67419   Biso      1.000     O          -0.640863           
         O13       1.0000    0.89013   0.70813   0.32703   Biso      1.000     O          -0.625807           
         O14       1.0000    0.80890   0.86942   0.27555   Biso      1.000     O          -0.757522           
         O15       1.0000    0.80300   0.23033   0.29808   Biso      1.000     O          -0.747801           
         O16       1.0000    0.64794   0.95176   0.40600   Biso      1.000     O          -0.486769           
         O17       1.0000    0.73798   0.57631   0.32581   Biso      1.000     O          -0.640863           
         O18       1.0000    0.70535   0.86010   0.33246   Biso      1.000     O          -0.717748           
         O19       1.0000    0.60987   0.20813   0.17297   Biso      1.000     O          -0.625807           
         O20       1.0000    0.69110   0.36942   0.22445   Biso      1.000     O          -0.757522           
         O21       1.0000    0.69700   0.73033   0.20192   Biso      1.000     O          -0.747801           
         O22       1.0000    0.14794   0.45176   0.40600   Biso      1.000     O          -0.48677  
         O23       1.0000    0.23798   0.07631   0.32581   Biso      1.000     O          -0.640863           
         O24       1.0000    0.20535   0.36010   0.33246   Biso      1.000     O          -0.717748           
         O25       1.0000    0.10987   0.70813   0.17297   Biso      1.000     O          -0.625807           
         O26       1.0000    0.19110   0.86942   0.22445   Biso      1.000     O          -0.757522           
         O27       1.0000    0.19700   0.23033   0.20192   Biso      1.000     O          -0.747801           
         O28       1.0000    0.79465   0.36010   0.16754   Biso      1.000     O          -0.717748           
         O29       1.0000    0.35206   0.04824   0.59400   Biso      1.000     O          -0.486769           
         O30       1.0000    0.76202   0.07631   0.17419   Biso      1.000     O          -0.640863           
         O31       1.0000    0.30300   0.73033   0.29808   Biso      1.000     O          -0.747801           
         O32       1.0000    0.29465   0.13990   0.66754   Biso      1.000     O          -0.717748           
         O33       1.0000    0.39013   0.79187   0.82703   Biso      1.000     O          -0.625807           
         O34       1.0000    0.30890   0.63058   0.77555   Biso      1.000     O          -0.757522           
         O35       1.0000    0.30300   0.26967   0.79808   Biso      1.000     O          -0.747801           
         O36       1.0000    0.85206   0.54824   0.59400   Biso      1.000     O          -0.486769           
         O37       1.0000    0.76202   0.92369   0.67419   Biso      1.000     O          -0.640863           
         O38       1.0000    0.79465   0.63990   0.66754   Biso      1.000     O          -0.717748           
         O39       1.0000    0.89013   0.29187   0.82703   Biso      1.000     O          -0.625807           
         O40       1.0000    0.80890   0.13058   0.77555   Biso      1.000     O          -0.757522           
         O41       1.0000    0.80300   0.76967   0.79808   Biso      1.000     O          -0.747801           
         O42       1.0000    0.73798   0.42369   0.82581   Biso      1.000     O          -0.640863           
         O43       1.0000    0.26202   0.57631   0.17419   Biso      1.000     O          -0.640863           
         O44       1.0000    0.29465   0.86010   0.16754   Biso      1.000     O          -0.717748           
         O45       1.0000    0.39013   0.20813   0.32703   Biso      1.000     O          -0.625807           
         O46       1.0000    0.30890   0.36942   0.27555   Biso      1.000     O          -0.757522           
         O47       1.0000    0.85206   0.45176   0.09400   Biso      1.000     O          -0.486769           
         O48       1.0000    0.64794   0.04824   0.90600   Biso      1.000     O          -0.486769 