
##########################################################################
#               Crystallographic Information Format file
#               Produced by PyCifRW module
#
#  This is a CIF file.  CIF has been adopted by the International
#  Union of Crystallography as the standard for data archiving and
#  transmission.
#
#  For information on this file format, follow the CIF links at
#  http://www.iucr.org
##########################################################################

data_image0

_cell_length_a                          8.7525
_cell_length_b                          8.7492
_cell_length_c                          27.498
_cell_angle_alpha                       90
_cell_angle_beta                        102.074
_cell_angle_gamma                       90
_symmetry_space_group_name_H-M          'P 1'
_symmetry_int_tables_number             1
loop_
  _symmetry_equiv_pos_as_xyz
         'x, y, z' 
loop_
  _atom_site_label
  _atom_site_occupancy
  _atom_site_fract_x
  _atom_site_fract_y
  _atom_site_fract_z
  _atom_site_thermal_displace_type
  _atom_site_B_iso_or_equiv
  _atom_site_type_symbol
  _atom_site_charge
         C1        1.0000    0.34440   0.31410   0.17543   Biso      1.000     C          0.655465  
         C2        1.0000    0.43980   0.25010   0.83421   Biso      1.000     C          0.698681  
         C3        1.0000    0.65560   0.68590   0.82457   Biso      1.000     C          0.655466  
         C4        1.0000    0.15560   0.80880   0.62770   Biso      1.000     C          -0.202249           
         C5        1.0000    0.56020   0.74990   0.16579   Biso      1.000     C          0.698681  
         C6        1.0000    0.23750   0.58490   0.16197   Biso      1.000     C          0.39673   
         C7        1.0000    0.25850   0.43620   0.14412   Biso      1.000     C          -0.18648199999999998          
         C8        1.0000    0.58420   0.72830   0.11421   Biso      1.000     C          -0.19375699999999998          
         C9        1.0000    0.15560   0.69120   0.12770   Biso      1.000     C          -0.20225  
         C10       1.0000    0.19040   0.39980   0.09472   Biso      1.000     C          -0.143044           
         C11       1.0000    0.65630   0.59610   0.10073   Biso      1.000     C          0.346641  
         C12       1.0000    0.53690   0.84090   0.07906   Biso      1.000     C          -0.133907           
         C13       1.0000    0.09200   0.65410   0.07975   Biso      1.000     C          -0.10475599999999999          
         C14       1.0000    0.10630   0.50440   0.06230   Biso      1.000     C          0.146536  
         C15       1.0000    0.76250   0.41510   0.83803   Biso      1.000     C          0.396729  
         C16       1.0000    0.67750   0.58100   0.05245   Biso      1.000     C          -0.20935  
         C17       1.0000    0.63170   0.80620   0.51840   Biso      1.000     C          -0.11083299999999999          
         C18       1.0000    0.63170   0.69380   0.01840   Biso      1.000     C          -0.110828           
         C19       1.0000    0.56330   0.67380   0.53132   Biso      1.000     C          0.146874  
         C20       1.0000    0.67750   0.91900   0.55245   Biso      1.000     C          -0.209346           
         C21       1.0000    0.10630   0.99560   0.56230   Biso      1.000     C          0.146527  
         C22       1.0000    0.09200   0.84590   0.57975   Biso      1.000     C          -0.104754           
         C23       1.0000    0.53690   0.65910   0.57906   Biso      1.000     C          -0.133908           
         C24       1.0000    0.65630   0.90390   0.60073   Biso      1.000     C          0.346642  
         C25       1.0000    0.34440   0.18590   0.67543   Biso      1.000     C          0.655466  
         C26       1.0000    0.56020   0.75010   0.66579   Biso      1.000     C          0.698681  
         C27       1.0000    0.23750   0.91510   0.66197   Biso      1.000     C          0.39673   
         C28       1.0000    0.25850   0.06380   0.64412   Biso      1.000     C          -0.18648199999999998          
         C29       1.0000    0.58420   0.77170   0.61421   Biso      1.000     C          -0.193754           
         C30       1.0000    0.56330   0.82620   0.03132   Biso      1.000     C          0.146874  
         C31       1.0000    0.74150   0.56380   0.85588   Biso      1.000     C          -0.18648199999999998          
         C32       1.0000    0.19040   0.10020   0.59472   Biso      1.000     C          -0.143042           
         C33       1.0000    0.34370   0.09610   0.39927   Biso      1.000     C          0.34664   
         C34       1.0000    0.41580   0.22830   0.38579   Biso      1.000     C          -0.19375699999999998          
         C35       1.0000    0.41580   0.27170   0.88579   Biso      1.000     C          -0.19375799999999999          
         C36       1.0000    0.46310   0.34090   0.42094   Biso      1.000     C          -0.133904           
         C37       1.0000    0.74150   0.93620   0.35588   Biso      1.000     C          -0.18648199999999998          
         C38       1.0000    0.43670   0.17380   0.96868   Biso      1.000     C          0.146865  
         C39       1.0000    0.76250   0.08490   0.33803   Biso      1.000     C          0.396728  
         C40       1.0000    0.90800   0.15410   0.42025   Biso      1.000     C          -0.104769           
         C41       1.0000    0.89370   0.00440   0.43770   Biso      1.000     C          0.146534  
         C42       1.0000    0.43980   0.24990   0.33421   Biso      1.000     C          0.698681  
         C43       1.0000    0.84440   0.19120   0.37230   Biso      1.000     C          -0.202236           
         C44       1.0000    0.32250   0.41900   0.94755   Biso      1.000     C          -0.209352           
         C45       1.0000    0.65560   0.81410   0.32457   Biso      1.000     C          0.655465  
         C46       1.0000    0.43670   0.32620   0.46868   Biso      1.000     C          0.146867  
         C47       1.0000    0.89370   0.49560   0.93770   Biso      1.000     C          0.146529  
         C48       1.0000    0.90800   0.34590   0.92025   Biso      1.000     C          -0.104768           
         C49       1.0000    0.36830   0.30620   0.98160   Biso      1.000     C          -0.110828           
         C50       1.0000    0.46310   0.15910   0.92094   Biso      1.000     C          -0.133903           
         C51       1.0000    0.36830   0.19380   0.48160   Biso      1.000     C          -0.11083599999999999          
         C52       1.0000    0.34370   0.40390   0.89927   Biso      1.000     C          0.346644  
         C53       1.0000    0.80960   0.60020   0.90528   Biso      1.000     C          -0.143042           
         C54       1.0000    0.84440   0.30880   0.87230   Biso      1.000     C          -0.202237           
         C55       1.0000    0.32250   0.08100   0.44755   Biso      1.000     C          -0.20934299999999997          
         C56       1.0000    0.80960   0.89980   0.40528   Biso      1.000     C          -0.14304  
         Dy1       1.0000    0.50332   0.93628   0.76651   Biso      1.000     Dy          2.1186380000000002  
         Dy2       1.0000    0.50332   0.56372   0.26651   Biso      1.000     Dy          2.1186380000000002  
         Dy3       1.0000    0.49668   0.43628   0.73349   Biso      1.000     Dy          2.118637  
         Dy4       1.0000    0.49668   0.06372   0.23349   Biso      1.000     Dy          2.118637  
         H1        1.0000    0.03880   0.77220   0.55830   Biso      1.000     H          0.11998299999999999           
         H2        1.0000    0.20250   0.19870   0.58340   Biso      1.000     H          0.13208499999999998           
         H3        1.0000    0.72350   0.00720   0.54320   Biso      1.000     H          0.141557  
         H4        1.0000    0.67600   0.00000   0.66010   Biso      1.000     H          0.38629   
         H5        1.0000    0.64650   0.81830   0.48610   Biso      1.000     H          0.118431  
         H6        1.0000    0.14460   0.70920   0.63830   Biso      1.000     H          0.13747   
         H7        1.0000    0.79750   0.69870   0.91660   Biso      1.000     H          0.13208599999999998           
         H8        1.0000    0.51320   0.07240   0.91250   Biso      1.000     H          0.128099  
         H9        1.0000    0.96120   0.27220   0.94170   Biso      1.000     H          0.119984  
         H10       1.0000    0.27650   0.50720   0.95680   Biso      1.000     H          0.141558  
         H11       1.0000    0.85540   0.20920   0.86170   Biso      1.000     H          0.137469  
         H12       1.0000    0.32400   0.50000   0.83990   Biso      1.000     H          0.38629   
         H13       1.0000    0.48680   0.57240   0.58750   Biso      1.000     H          0.128098  
         H14       1.0000    0.64650   0.68170   0.98610   Biso      1.000     H          0.118431  
         H15       1.0000    0.35350   0.31830   0.01390   Biso      1.000     H          0.11843   
         H16       1.0000    0.32400   0.00000   0.33990   Biso      1.000     H          0.38629   
         H17       1.0000    0.27650   0.99280   0.45680   Biso      1.000     H          0.141557  
         H18       1.0000    0.96120   0.22780   0.44170   Biso      1.000     H          0.11998299999999999           
         H19       1.0000    0.51320   0.42760   0.41250   Biso      1.000     H          0.128099  
         H20       1.0000    0.79750   0.80130   0.41660   Biso      1.000     H          0.13208599999999998           
         H21       1.0000    0.67600   0.50000   0.16010   Biso      1.000     H          0.38629   
         H22       1.0000    0.72350   0.49280   0.04320   Biso      1.000     H          0.141557  
         H23       1.0000    0.85540   0.29080   0.36170   Biso      1.000     H          0.137469  
         H24       1.0000    0.14460   0.79080   0.13830   Biso      1.000     H          0.13747   
         H25       1.0000    0.03880   0.72780   0.05830   Biso      1.000     H          0.11998199999999999           
         H26       1.0000    0.48680   0.92760   0.08750   Biso      1.000     H          0.128098  
         H27       1.0000    0.20250   0.30130   0.08340   Biso      1.000     H          0.13208599999999998           
         H28       1.0000    0.35350   0.18170   0.51390   Biso      1.000     H          0.11843   
         N1        1.0000    0.96220   0.95080   0.48572   Biso      1.000     N          -0.15603699999999998          
         N2        1.0000    0.52400   0.56160   0.49312   Biso      1.000     N          -0.140821           
         N3        1.0000    0.03780   0.04920   0.51428   Biso      1.000     N          -0.155977           
         N4        1.0000    0.03780   0.45080   0.01428   Biso      1.000     N          -0.15603699999999998          
         N5        1.0000    0.96220   0.54920   0.98572   Biso      1.000     N          -0.155978           
         N6        1.0000    0.52400   0.93840   0.99312   Biso      1.000     N          -0.140822           
         N7        1.0000    0.47600   0.06160   0.00688   Biso      1.000     N          -0.140739           
         N8        1.0000    0.47600   0.43840   0.50688   Biso      1.000     N          -0.140738           
         O1        1.0000    0.33730   0.17860   0.16025   Biso      1.000     O          -0.632836           
         O2        1.0000    0.29450   0.51760   0.86667   Biso      1.000     O          -0.487004           
         O3        1.0000    0.29450   0.98240   0.36667   Biso      1.000     O          -0.48700299999999996          
         O4        1.0000    0.71390   0.12620   0.29112   Biso      1.000     O          -0.736284           
         O5        1.0000    0.39820   0.14120   0.30323   Biso      1.000     O          -0.710646           
         O6        1.0000    0.57130   0.84300   0.28149   Biso      1.000     O          -0.827616           
         O7        1.0000    0.50110   0.87210   0.17620   Biso      1.000     O          -0.6979270000000001           
         O8        1.0000    0.49890   0.12790   0.82380   Biso      1.000     O          -0.697928           
         O9        1.0000    0.60180   0.64120   0.19677   Biso      1.000     O          -0.710646           
         O10       1.0000    0.28610   0.62620   0.20888   Biso      1.000     O          -0.736284           
         O11       1.0000    0.49890   0.37210   0.32380   Biso      1.000     O          -0.697928           
         O12       1.0000    0.66270   0.82140   0.83975   Biso      1.000     O          -0.632836           
         O13       1.0000    0.33730   0.32140   0.66025   Biso      1.000     O          -0.632836           
         O14       1.0000    0.50110   0.62790   0.67620   Biso      1.000     O          -0.6979270000000001           
         O15       1.0000    0.71390   0.37380   0.79112   Biso      1.000     O          -0.736284           
         O16       1.0000    0.39820   0.35880   0.80323   Biso      1.000     O          -0.710646           
         O17       1.0000    0.57130   0.65700   0.78149   Biso      1.000     O          -0.827616           
         O18       1.0000    0.70550   0.48240   0.13333   Biso      1.000     O          -0.48700299999999996          
         O19       1.0000    0.70550   0.01760   0.63333   Biso      1.000     O          -0.487004           
         O20       1.0000    0.42870   0.15700   0.71851   Biso      1.000     O          -0.827616           
         O21       1.0000    0.60180   0.85880   0.69677   Biso      1.000     O          -0.710646           
         O22       1.0000    0.28610   0.87380   0.70888   Biso      1.000     O          -0.736284           
         O23       1.0000    0.42870   0.34300   0.21851   Biso      1.000     O          -0.827616           
         O24       1.0000    0.66270   0.67860   0.33975   Biso      1.000     O          -0.632836 