
##########################################################################
#               Crystallographic Information Format file
#               Produced by PyCifRW module
#
#  This is a CIF file.  CIF has been adopted by the International
#  Union of Crystallography as the standard for data archiving and
#  transmission.
#
#  For information on this file format, follow the CIF links at
#  http://www.iucr.org
##########################################################################

data_image0

_cell_length_a                          15.5354
_cell_length_b                          15.8981
_cell_length_c                          13.3111
_cell_angle_alpha                       90
_cell_angle_beta                        112.592
_cell_angle_gamma                       90
_symmetry_space_group_name_H-M          'P 1'
_symmetry_int_tables_number             1
loop_
  _symmetry_equiv_pos_as_xyz
         'x, y, z' 
loop_
  _atom_site_label
  _atom_site_occupancy
  _atom_site_fract_x
  _atom_site_fract_y
  _atom_site_fract_z
  _atom_site_thermal_displace_type
  _atom_site_B_iso_or_equiv
  _atom_site_type_symbol
  _atom_site_charge
         C1        1.0000    0.10500   0.04470   0.72500   Biso      1.000     C          0.153931  
         C2        1.0000    0.73640   0.97990   0.26280   Biso      1.000     C          -0.19989  
         C3        1.0000    0.92480   0.05330   0.88870   Biso      1.000     C          -0.108137           
         C4        1.0000    0.55140   0.25340   0.93240   Biso      1.000     C          -0.130798           
         C5        1.0000    0.73640   0.02010   0.76280   Biso      1.000     C          -0.199889           
         C6        1.0000    0.53130   0.40080   0.95940   Biso      1.000     C          0.18625   
         C7        1.0000    0.51770   0.31920   0.97780   Biso      1.000     C          -0.159122           
         C8        1.0000    0.13730   0.95560   0.06290   Biso      1.000     C          -0.191019           
         C9        1.0000    0.64060   0.00390   0.69370   Biso      1.000     C          0.724384  
         C10       1.0000    0.53350   0.16210   0.95720   Biso      1.000     C          0.706196  
         C11       1.0000    0.58290   0.41820   0.89800   Biso      1.000     C          -0.127912           
         C12       1.0000    0.23070   0.97480   0.12100   Biso      1.000     C          0.416525  
         C13       1.0000    0.61700   0.35660   0.85160   Biso      1.000     C          -0.167195           
         C14       1.0000    0.59810   0.27330   0.86710   Biso      1.000     C          0.324601  
         C15       1.0000    0.40500   0.66000   0.72700   Biso      1.000     C          -0.181072           
         C16       1.0000    0.19680   0.97090   0.28520   Biso      1.000     C          -0.140567           
         C17       1.0000    0.10500   0.95530   0.22500   Biso      1.000     C          0.153945  
         C18       1.0000    0.40500   0.34000   0.22700   Biso      1.000     C          -0.181071           
         C19       1.0000    0.59810   0.72670   0.36710   Biso      1.000     C          0.324599  
         C20       1.0000    0.61700   0.64340   0.35160   Biso      1.000     C          -0.167207           
         C21       1.0000    0.58290   0.58180   0.39800   Biso      1.000     C          -0.127903           
         C22       1.0000    0.53350   0.83790   0.45720   Biso      1.000     C          0.706197  
         C23       1.0000    0.89500   0.95530   0.27500   Biso      1.000     C          0.153932  
         C24       1.0000    0.80320   0.97090   0.21480   Biso      1.000     C          -0.14056  
         C25       1.0000    0.64060   0.99610   0.19370   Biso      1.000     C          0.724384  
         C26       1.0000    0.76930   0.97480   0.37900   Biso      1.000     C          0.416525  
         C27       1.0000    0.86270   0.95560   0.43710   Biso      1.000     C          -0.191019           
         C28       1.0000    0.92480   0.94670   0.38870   Biso      1.000     C          -0.10812  
         C29       1.0000    0.51770   0.68080   0.47780   Biso      1.000     C          -0.15914  
         C30       1.0000    0.55140   0.74660   0.43240   Biso      1.000     C          -0.130784           
         C31       1.0000    0.86270   0.04440   0.93710   Biso      1.000     C          -0.191004           
         C32       1.0000    0.76930   0.02520   0.87900   Biso      1.000     C          0.416523  
         C33       1.0000    0.07520   0.94670   0.11130   Biso      1.000     C          -0.108122           
         C34       1.0000    0.80320   0.02910   0.71480   Biso      1.000     C          -0.140567           
         C35       1.0000    0.19680   0.02910   0.78520   Biso      1.000     C          -0.14056  
         C36       1.0000    0.50000   0.21600   0.25000   Biso      1.000     C          0.701042  
         C37       1.0000    0.23070   0.02520   0.62100   Biso      1.000     C          0.416524  
         C38       1.0000    0.13730   0.04440   0.56290   Biso      1.000     C          -0.191019           
         C39       1.0000    0.50000   0.78400   0.75000   Biso      1.000     C          0.701043  
         C40       1.0000    0.07520   0.05330   0.61130   Biso      1.000     C          -0.10812  
         C41       1.0000    0.59500   0.34000   0.27300   Biso      1.000     C          -0.18107  
         C42       1.0000    0.44860   0.25340   0.56760   Biso      1.000     C          -0.130797           
         C43       1.0000    0.26360   0.02010   0.73720   Biso      1.000     C          -0.199889           
         C44       1.0000    0.46870   0.40080   0.54060   Biso      1.000     C          0.186249  
         C45       1.0000    0.48230   0.31920   0.52220   Biso      1.000     C          -0.159121           
         C46       1.0000    0.40190   0.72670   0.13290   Biso      1.000     C          0.324595  
         C47       1.0000    0.35940   0.00390   0.80630   Biso      1.000     C          0.724384  
         C48       1.0000    0.46650   0.16210   0.54280   Biso      1.000     C          0.706196  
         C49       1.0000    0.38300   0.35660   0.64840   Biso      1.000     C          -0.167204           
         C50       1.0000    0.41710   0.41820   0.60200   Biso      1.000     C          -0.127902           
         C51       1.0000    0.35940   0.99610   0.30630   Biso      1.000     C          0.724384  
         C52       1.0000    0.89500   0.04470   0.77500   Biso      1.000     C          0.153946  
         C53       1.0000    0.44860   0.74660   0.06760   Biso      1.000     C          -0.130788           
         C54       1.0000    0.26360   0.97990   0.23720   Biso      1.000     C          -0.199889           
         C55       1.0000    0.46870   0.59920   0.04060   Biso      1.000     C          0.186243  
         C56       1.0000    0.48230   0.68080   0.02220   Biso      1.000     C          -0.159125           
         C57       1.0000    0.46650   0.83790   0.04280   Biso      1.000     C          0.706196  
         C58       1.0000    0.41710   0.58180   0.10200   Biso      1.000     C          -0.127908           
         C59       1.0000    0.53130   0.59920   0.45940   Biso      1.000     C          0.18626   
         C60       1.0000    0.59500   0.66000   0.77300   Biso      1.000     C          -0.181071           
         C61       1.0000    0.40190   0.27330   0.63290   Biso      1.000     C          0.324603  
         C62       1.0000    0.38300   0.64340   0.14840   Biso      1.000     C          -0.167196           
         H1        1.0000    0.40490   0.52590   0.11250   Biso      1.000     H          0.113852  
         H2        1.0000    0.21630   0.97580   0.36030   Biso      1.000     H          0.120977  
         H3        1.0000    0.51480   0.69370   0.97840   Biso      1.000     H          0.112828  
         H4        1.0000    0.65190   0.62980   0.31070   Biso      1.000     H          0.145279  
         H5        1.0000    0.11660   0.94850   0.98790   Biso      1.000     H          0.134842  
         H6        1.0000    0.48520   0.69370   0.52160   Biso      1.000     H          0.112829  
         H7        1.0000    0.01300   0.93500   0.06940   Biso      1.000     H          0.116254  
         H8        1.0000    0.59510   0.52590   0.38750   Biso      1.000     H          0.113852  
         H9        1.0000    0.34810   0.62980   0.18930   Biso      1.000     H          0.145277  
         H10       1.0000    0.78370   0.97580   0.13970   Biso      1.000     H          0.120976  
         H11       1.0000    0.88340   0.94850   0.51210   Biso      1.000     H          0.134843  
         H12       1.0000    0.65190   0.37020   0.81070   Biso      1.000     H          0.145276  
         H13       1.0000    0.59510   0.47410   0.88750   Biso      1.000     H          0.113851  
         H14       1.0000    0.48520   0.30630   0.02160   Biso      1.000     H          0.112829  
         H15       1.0000    0.98700   0.06500   0.93060   Biso      1.000     H          0.116255  
         H16       1.0000    0.51480   0.30630   0.47840   Biso      1.000     H          0.112829  
         H17       1.0000    0.78370   0.02420   0.63970   Biso      1.000     H          0.120977  
         H18       1.0000    0.88340   0.05150   0.01210   Biso      1.000     H          0.134841  
         H19       1.0000    0.11660   0.05150   0.48790   Biso      1.000     H          0.134843  
         H20       1.0000    0.40490   0.47410   0.61250   Biso      1.000     H          0.11385   
         H21       1.0000    0.34810   0.37020   0.68930   Biso      1.000     H          0.145278  
         H22       1.0000    0.21630   0.02420   0.86030   Biso      1.000     H          0.120976  
         H23       1.0000    0.98700   0.93500   0.43060   Biso      1.000     H          0.116254  
         H24       1.0000    0.01300   0.06500   0.56940   Biso      1.000     H          0.116255  
         N1        1.0000    0.50870   0.46320   0.49240   Biso      1.000     N          -0.134001           
         N2        1.0000    0.49130   0.46320   0.00760   Biso      1.000     N          -0.134001           
         N3        1.0000    0.95750   0.04480   0.71890   Biso      1.000     N          -0.138182           
         N4        1.0000    0.50870   0.53680   0.99240   Biso      1.000     N          -0.133915           
         N5        1.0000    0.04250   0.95520   0.28110   Biso      1.000     N          -0.138182           
         N6        1.0000    0.95750   0.95520   0.21890   Biso      1.000     N          -0.138123           
         N7        1.0000    0.49130   0.53680   0.50760   Biso      1.000     N          -0.133916           
         N8        1.0000    0.50000   0.69200   0.75000   Biso      1.000     N          -0.099401           
         N9        1.0000    0.50000   0.30800   0.25000   Biso      1.000     N          -0.099401           
         N10       1.0000    0.04250   0.04480   0.78110   Biso      1.000     N          -0.138122           
         O1        1.0000    0.44520   0.89130   0.09500   Biso      1.000     O          -0.574976           
         O2        1.0000    0.36860   0.78620   0.17860   Biso      1.000     O          -0.324779           
         O3        1.0000    0.38700   0.98950   0.40910   Biso      1.000     O          -0.735743           
         O4        1.0000    0.49980   0.84950   0.97150   Biso      1.000     O          -0.754086           
         O5        1.0000    0.41830   0.01540   0.26590   Biso      1.000     O          -0.770583           
         O6        1.0000    0.28500   0.98730   0.06840   Biso      1.000     O          -0.664438           
         O7        1.0000    0.50000   0.84420   0.75000   Biso      1.000     O          -0.288754           
         O8        1.0000    0.44520   0.10870   0.59500   Biso      1.000     O          -0.574976           
         O9        1.0000    0.50000   0.15580   0.25000   Biso      1.000     O          -0.288754           
         O10       1.0000    0.38700   0.01050   0.90910   Biso      1.000     O          -0.735742           
         O11       1.0000    0.71500   0.01270   0.93160   Biso      1.000     O          -0.664439           
         O12       1.0000    0.58170   0.98460   0.73410   Biso      1.000     O          -0.770583           
         O13       1.0000    0.50020   0.15050   0.02850   Biso      1.000     O          -0.754087           
         O14       1.0000    0.61300   0.01050   0.59090   Biso      1.000     O          -0.735742           
         O15       1.0000    0.63140   0.21380   0.82140   Biso      1.000     O          -0.324776           
         O16       1.0000    0.55480   0.10870   0.90500   Biso      1.000     O          -0.574974           
         O17       1.0000    0.36860   0.21380   0.67860   Biso      1.000     O          -0.32478  
         O18       1.0000    0.63140   0.78620   0.32140   Biso      1.000     O          -0.324786           
         O19       1.0000    0.55480   0.89130   0.40500   Biso      1.000     O          -0.574979           
         O20       1.0000    0.50020   0.84950   0.52850   Biso      1.000     O          -0.754086           
         O21       1.0000    0.58170   0.01540   0.23410   Biso      1.000     O          -0.770583           
         O22       1.0000    0.71500   0.98730   0.43160   Biso      1.000     O          -0.664438           
         O23       1.0000    0.28500   0.01270   0.56840   Biso      1.000     O          -0.664438           
         O24       1.0000    0.41830   0.98460   0.76590   Biso      1.000     O          -0.770583           
         O25       1.0000    0.49980   0.15050   0.47150   Biso      1.000     O          -0.754087           
         O26       1.0000    0.61300   0.98950   0.09090   Biso      1.000     O          -0.735742           
         Sm1       1.0000    0.57291   0.04280   0.40742   Biso      1.000     Sm          2.090039  
         Sm2       1.0000    0.42709   0.04280   0.09258   Biso      1.000     Sm          2.090038  
         Sm3       1.0000    0.57291   0.95720   0.90742   Biso      1.000     Sm          2.090038  
         Sm4       1.0000    0.42709   0.95720   0.59258   Biso      1.000     Sm          2.090039 