
##########################################################################
#               Crystallographic Information Format file
#               Produced by PyCifRW module
#
#  This is a CIF file.  CIF has been adopted by the International
#  Union of Crystallography as the standard for data archiving and
#  transmission.
#
#  For information on this file format, follow the CIF links at
#  http://www.iucr.org
##########################################################################

data_image0

_cell_length_a                          8.8181
_cell_length_b                          8.7879
_cell_length_c                          27.5387
_cell_angle_alpha                       90
_cell_angle_beta                        102.183
_cell_angle_gamma                       90
_symmetry_space_group_name_H-M          'P 1'
_symmetry_int_tables_number             1
loop_
  _symmetry_equiv_pos_as_xyz
         'x, y, z' 
loop_
  _atom_site_label
  _atom_site_occupancy
  _atom_site_fract_x
  _atom_site_fract_y
  _atom_site_fract_z
  _atom_site_thermal_displace_type
  _atom_site_B_iso_or_equiv
  _atom_site_type_symbol
  _atom_site_charge
         C1        1.0000    0.55990   0.25290   0.66486   Biso      1.000     C          0.691492  
         C2        1.0000    0.32130   0.58230   0.44823   Biso      1.000     C          -0.211018           
         C3        1.0000    0.36780   0.69570   0.48214   Biso      1.000     C          -0.108686           
         C4        1.0000    0.43700   0.82680   0.46912   Biso      1.000     C          0.148205  
         C5        1.0000    0.46280   0.84050   0.42129   Biso      1.000     C          -0.135202           
         C6        1.0000    0.41620   0.72710   0.38651   Biso      1.000     C          -0.193638           
         C7        1.0000    0.44010   0.74710   0.33514   Biso      1.000     C          0.691495  
         C8        1.0000    0.10540   0.00390   0.06243   Biso      1.000     C          0.147852  
         C9        1.0000    0.18910   0.89940   0.09450   Biso      1.000     C          -0.144442           
         C10       1.0000    0.81090   0.10060   0.90550   Biso      1.000     C          -0.144445           
         C11       1.0000    0.89460   0.99610   0.93757   Biso      1.000     C          0.147861  
         C12       1.0000    0.90810   0.84740   0.92045   Biso      1.000     C          -0.106478           
         C13       1.0000    0.84510   0.81080   0.87231   Biso      1.000     C          -0.202654           
         C14       1.0000    0.76360   0.91670   0.83822   Biso      1.000     C          0.393129  
         C15       1.0000    0.74290   0.06490   0.85607   Biso      1.000     C          -0.188998           
         C16       1.0000    0.65750   0.18730   0.82493   Biso      1.000     C          0.65521   
         C17       1.0000    0.34420   0.59650   0.40032   Biso      1.000     C          0.346213  
         C18       1.0000    0.34420   0.90350   0.90032   Biso      1.000     C          0.34621   
         C19       1.0000    0.65750   0.31270   0.32493   Biso      1.000     C          0.655218  
         C20       1.0000    0.76360   0.58330   0.33822   Biso      1.000     C          0.393134  
         C21       1.0000    0.67870   0.08230   0.05177   Biso      1.000     C          -0.211017           
         C22       1.0000    0.63220   0.19570   0.01786   Biso      1.000     C          -0.108686           
         C23       1.0000    0.56300   0.32680   0.03088   Biso      1.000     C          0.148197  
         C24       1.0000    0.53720   0.34050   0.07871   Biso      1.000     C          -0.135198           
         C25       1.0000    0.58380   0.22710   0.11349   Biso      1.000     C          -0.193639           
         C26       1.0000    0.55990   0.24710   0.16486   Biso      1.000     C          0.691487  
         C27       1.0000    0.34250   0.81270   0.17507   Biso      1.000     C          0.655215  
         C28       1.0000    0.25710   0.93510   0.14393   Biso      1.000     C          -0.188996           
         C29       1.0000    0.23640   0.08330   0.16178   Biso      1.000     C          0.39313   
         C30       1.0000    0.15490   0.18920   0.12769   Biso      1.000     C          -0.202666           
         C31       1.0000    0.09190   0.15260   0.07955   Biso      1.000     C          -0.106468           
         C32       1.0000    0.81090   0.39940   0.40550   Biso      1.000     C          -0.144445           
         C33       1.0000    0.89460   0.50390   0.43757   Biso      1.000     C          0.147856  
         C34       1.0000    0.90810   0.65260   0.42045   Biso      1.000     C          -0.106476           
         C35       1.0000    0.84510   0.68920   0.37231   Biso      1.000     C          -0.202652           
         C36       1.0000    0.74290   0.43510   0.35607   Biso      1.000     C          -0.189    
         C37       1.0000    0.32130   0.91770   0.94823   Biso      1.000     C          -0.211015           
         C38       1.0000    0.65580   0.09650   0.09968   Biso      1.000     C          0.346214  
         C39       1.0000    0.10540   0.49610   0.56243   Biso      1.000     C          0.147857  
         C40       1.0000    0.15490   0.31080   0.62769   Biso      1.000     C          -0.202663           
         C41       1.0000    0.25710   0.56490   0.64393   Biso      1.000     C          -0.188997           
         C42       1.0000    0.34250   0.68730   0.67507   Biso      1.000     C          0.65521   
         C43       1.0000    0.65580   0.40350   0.59968   Biso      1.000     C          0.34621   
         C44       1.0000    0.18910   0.60060   0.59450   Biso      1.000     C          -0.144442           
         C45       1.0000    0.67870   0.41770   0.55177   Biso      1.000     C          -0.211014           
         C46       1.0000    0.63220   0.30430   0.51786   Biso      1.000     C          -0.108689           
         C47       1.0000    0.56300   0.17320   0.53088   Biso      1.000     C          0.148197  
         C48       1.0000    0.23640   0.41670   0.66178   Biso      1.000     C          0.39313   
         C49       1.0000    0.53720   0.15950   0.57871   Biso      1.000     C          -0.135198           
         C50       1.0000    0.44010   0.75290   0.83514   Biso      1.000     C          0.691492  
         C51       1.0000    0.09190   0.34740   0.57955   Biso      1.000     C          -0.106468           
         C52       1.0000    0.41620   0.77290   0.88651   Biso      1.000     C          -0.193637           
         C53       1.0000    0.46280   0.65950   0.92129   Biso      1.000     C          -0.135203           
         C54       1.0000    0.58380   0.27290   0.61349   Biso      1.000     C          -0.193637           
         C55       1.0000    0.43700   0.67320   0.96912   Biso      1.000     C          0.148207  
         C56       1.0000    0.36780   0.80430   0.98214   Biso      1.000     C          -0.108686           
         Gd1       1.0000    0.50385   0.43828   0.76681   Biso      1.000     Gd          2.094109  
         Gd2       1.0000    0.49615   0.56171   0.23319   Biso      1.000     Gd          2.094175  
         Gd3       1.0000    0.50385   0.06172   0.26681   Biso      1.000     Gd          2.094111  
         Gd4       1.0000    0.49615   0.93828   0.73319   Biso      1.000     Gd          2.094108  
         H1        1.0000    0.14360   0.21190   0.63840   Biso      1.000     H          0.136633  
         H2        1.0000    0.96000   0.72620   0.44200   Biso      1.000     H          0.12083   
         H3        1.0000    0.85640   0.78810   0.36160   Biso      1.000     H          0.136633  
         H4        1.0000    0.27420   0.00470   0.95750   Biso      1.000     H          0.142978  
         H5        1.0000    0.33000   0.50000   0.34210   Biso      1.000     H          0.381793  
         H6        1.0000    0.14360   0.28810   0.13840   Biso      1.000     H          0.136632  
         H7        1.0000    0.64730   0.31530   0.48560   Biso      1.000     H          0.117738  
         H8        1.0000    0.48810   0.42680   0.08750   Biso      1.000     H          0.128003  
         H9        1.0000    0.48810   0.07320   0.58750   Biso      1.000     H          0.128002  
         H10       1.0000    0.64730   0.18470   0.98560   Biso      1.000     H          0.117738  
         H11       1.0000    0.79900   0.30160   0.41700   Biso      1.000     H          0.132612  
         H12       1.0000    0.72580   0.50470   0.54250   Biso      1.000     H          0.142978  
         H13       1.0000    0.27420   0.49530   0.45750   Biso      1.000     H          0.142978  
         H14       1.0000    0.20100   0.69840   0.58300   Biso      1.000     H          0.132613  
         H15       1.0000    0.51190   0.57320   0.91250   Biso      1.000     H          0.128001  
         H16       1.0000    0.85640   0.71190   0.86160   Biso      1.000     H          0.136632  
         H17       1.0000    0.96000   0.77380   0.94200   Biso      1.000     H          0.12083   
         H18       1.0000    0.72580   0.99530   0.04250   Biso      1.000     H          0.142978  
         H19       1.0000    0.33000   0.00000   0.84210   Biso      1.000     H          0.381794  
         H20       1.0000    0.67000   0.00000   0.15790   Biso      1.000     H          0.381795  
         H21       1.0000    0.20100   0.80160   0.08300   Biso      1.000     H          0.132612  
         H22       1.0000    0.04000   0.27380   0.55800   Biso      1.000     H          0.120829  
         H23       1.0000    0.04000   0.22620   0.05800   Biso      1.000     H          0.12083   
         H24       1.0000    0.79900   0.19840   0.91700   Biso      1.000     H          0.132613  
         H25       1.0000    0.51190   0.92680   0.41250   Biso      1.000     H          0.128001  
         H26       1.0000    0.67000   0.50000   0.65790   Biso      1.000     H          0.381794  
         H27       1.0000    0.35270   0.68470   0.51440   Biso      1.000     H          0.117739  
         H28       1.0000    0.35270   0.81530   0.01440   Biso      1.000     H          0.117739  
         N1        1.0000    0.47580   0.93880   0.50685   Biso      1.000     N          -0.142273           
         N2        1.0000    0.03780   0.54910   0.51422   Biso      1.000     N          -0.15743  
         N3        1.0000    0.96220   0.04910   0.98578   Biso      1.000     N          -0.157431           
         N4        1.0000    0.47580   0.56120   0.00685   Biso      1.000     N          -0.142272           
         N5        1.0000    0.52420   0.06120   0.49315   Biso      1.000     N          -0.142186           
         N6        1.0000    0.03780   0.95090   0.01422   Biso      1.000     N          -0.157377           
         N7        1.0000    0.52420   0.43880   0.99315   Biso      1.000     N          -0.142185           
         N8        1.0000    0.96220   0.45090   0.48578   Biso      1.000     N          -0.157378           
         O1        1.0000    0.33510   0.67870   0.15927   Biso      1.000     O          -0.627875           
         O2        1.0000    0.60130   0.13800   0.19562   Biso      1.000     O          -0.702251           
         O3        1.0000    0.28370   0.12330   0.20875   Biso      1.000     O          -0.725922           
         O4        1.0000    0.49940   0.36760   0.17557   Biso      1.000     O          -0.691424           
         O5        1.0000    0.29500   0.01700   0.86790   Biso      1.000     O          -0.483285           
         O6        1.0000    0.57400   0.34060   0.28202   Biso      1.000     O          -0.815351           
         O7        1.0000    0.49940   0.13240   0.67557   Biso      1.000     O          -0.69142  
         O8        1.0000    0.33510   0.82130   0.65927   Biso      1.000     O          -0.627856           
         O9        1.0000    0.60130   0.36200   0.69562   Biso      1.000     O          -0.702255           
         O10       1.0000    0.28370   0.37670   0.70875   Biso      1.000     O          -0.725918           
         O11       1.0000    0.42600   0.65940   0.71798   Biso      1.000     O          -0.815318           
         O12       1.0000    0.70500   0.51700   0.63210   Biso      1.000     O          -0.483286           
         O13       1.0000    0.50060   0.63240   0.82443   Biso      1.000     O          -0.69142  
         O14       1.0000    0.29500   0.48300   0.36790   Biso      1.000     O          -0.483287           
         O15       1.0000    0.66490   0.32130   0.84073   Biso      1.000     O          -0.627856           
         O16       1.0000    0.71630   0.87670   0.79125   Biso      1.000     O          -0.725918           
         O17       1.0000    0.57400   0.15940   0.78202   Biso      1.000     O          -0.815317           
         O18       1.0000    0.42600   0.84060   0.21798   Biso      1.000     O          -0.815324           
         O19       1.0000    0.50060   0.86760   0.32443   Biso      1.000     O          -0.691419           
         O20       1.0000    0.66490   0.17870   0.34073   Biso      1.000     O          -0.627851           
         O21       1.0000    0.39870   0.63800   0.30438   Biso      1.000     O          -0.702266           
         O22       1.0000    0.71630   0.62330   0.29125   Biso      1.000     O          -0.725933           
         O23       1.0000    0.39870   0.86200   0.80438   Biso      1.000     O          -0.702254           
         O24       1.0000    0.70500   0.98300   0.13210   Biso      1.000     O          -0.483284 