
##########################################################################
#               Crystallographic Information Format file
#               Produced by PyCifRW module
#
#  This is a CIF file.  CIF has been adopted by the International
#  Union of Crystallography as the standard for data archiving and
#  transmission.
#
#  For information on this file format, follow the CIF links at
#  http://www.iucr.org
##########################################################################

data_image0

_cell_length_a                          8.8304
_cell_length_b                          8.8257
_cell_length_c                          27.644
_cell_angle_alpha                       90
_cell_angle_beta                        102.142
_cell_angle_gamma                       90
_symmetry_space_group_name_H-M          'P 1'
_symmetry_int_tables_number             1
loop_
  _symmetry_equiv_pos_as_xyz
         'x, y, z' 
loop_
  _atom_site_label
  _atom_site_occupancy
  _atom_site_fract_x
  _atom_site_fract_y
  _atom_site_fract_z
  _atom_site_thermal_displace_type
  _atom_site_B_iso_or_equiv
  _atom_site_type_symbol
  _atom_site_charge
         C1        1.0000    0.55930   0.75310   0.16440   Biso      1.000     C          0.696681  
         C2        1.0000    0.32330   0.08450   0.94900   Biso      1.000     C          -0.208915           
         C3        1.0000    0.32330   0.41550   0.44900   Biso      1.000     C          -0.208916           
         C4        1.0000    0.81240   0.89950   0.90560   Biso      1.000     C          -0.143695           
         C5        1.0000    0.36920   0.30360   0.48260   Biso      1.000     C          -0.111146           
         C6        1.0000    0.89450   0.00360   0.93750   Biso      1.000     C          0.146526  
         C7        1.0000    0.43760   0.17220   0.46940   Biso      1.000     C          0.146995  
         C8        1.0000    0.46270   0.15950   0.42140   Biso      1.000     C          -0.138369           
         C9        1.0000    0.65900   0.68790   0.32570   Biso      1.000     C          0.663215  
         C10       1.0000    0.74500   0.56650   0.35640   Biso      1.000     C          -0.183884           
         C11       1.0000    0.76460   0.41830   0.33790   Biso      1.000     C          0.395743  
         C12       1.0000    0.84570   0.31250   0.37250   Biso      1.000     C          -0.203522           
         C13       1.0000    0.90910   0.15050   0.92020   Biso      1.000     C          -0.105646           
         C14       1.0000    0.90910   0.34950   0.42020   Biso      1.000     C          -0.105634           
         C15       1.0000    0.89450   0.49640   0.43750   Biso      1.000     C          0.146528  
         C16       1.0000    0.81240   0.60050   0.40560   Biso      1.000     C          -0.14369  
         C17       1.0000    0.53730   0.84050   0.57860   Biso      1.000     C          -0.138367           
         C18       1.0000    0.84570   0.18750   0.87250   Biso      1.000     C          -0.203509           
         C19       1.0000    0.76460   0.08170   0.83790   Biso      1.000     C          0.395741  
         C20       1.0000    0.74500   0.93350   0.85640   Biso      1.000     C          -0.183883           
         C21       1.0000    0.65900   0.81210   0.82570   Biso      1.000     C          0.663215  
         C22       1.0000    0.46270   0.34050   0.92140   Biso      1.000     C          -0.138367           
         C23       1.0000    0.43760   0.32780   0.96940   Biso      1.000     C          0.146986  
         C24       1.0000    0.18760   0.39950   0.59440   Biso      1.000     C          -0.143695           
         C25       1.0000    0.10550   0.50360   0.56250   Biso      1.000     C          0.146525  
         C26       1.0000    0.44070   0.24690   0.83560   Biso      1.000     C          0.696681  
         C27       1.0000    0.41590   0.22640   0.88700   Biso      1.000     C          -0.193831           
         C28       1.0000    0.34530   0.09670   0.90100   Biso      1.000     C          0.3424    
         C29       1.0000    0.41590   0.27360   0.38700   Biso      1.000     C          -0.193832           
         C30       1.0000    0.44070   0.25310   0.33560   Biso      1.000     C          0.696682  
         C31       1.0000    0.34530   0.40330   0.40100   Biso      1.000     C          0.3424    
         C32       1.0000    0.36920   0.19640   0.98260   Biso      1.000     C          -0.111146           
         C33       1.0000    0.56240   0.82780   0.53060   Biso      1.000     C          0.146987  
         C34       1.0000    0.53730   0.65950   0.07860   Biso      1.000     C          -0.13837  
         C35       1.0000    0.63080   0.69640   0.51740   Biso      1.000     C          -0.111157           
         C36       1.0000    0.34100   0.18790   0.17430   Biso      1.000     C          0.663215  
         C37       1.0000    0.25500   0.06650   0.14360   Biso      1.000     C          -0.183884           
         C38       1.0000    0.23540   0.91830   0.16210   Biso      1.000     C          0.395743  
         C39       1.0000    0.15430   0.81250   0.12750   Biso      1.000     C          -0.203522           
         C40       1.0000    0.67670   0.91550   0.05100   Biso      1.000     C          -0.208916           
         C41       1.0000    0.09090   0.84950   0.07980   Biso      1.000     C          -0.105634           
         C42       1.0000    0.67670   0.58450   0.55100   Biso      1.000     C          -0.208904           
         C43       1.0000    0.56240   0.67220   0.03060   Biso      1.000     C          0.146995  
         C44       1.0000    0.10550   0.99640   0.06250   Biso      1.000     C          0.146528  
         C45       1.0000    0.65470   0.59670   0.59900   Biso      1.000     C          0.342399  
         C46       1.0000    0.58410   0.72640   0.61300   Biso      1.000     C          -0.193831           
         C47       1.0000    0.65470   0.90330   0.09900   Biso      1.000     C          0.3424    
         C48       1.0000    0.55930   0.74690   0.66440   Biso      1.000     C          0.696681  
         C49       1.0000    0.34100   0.31210   0.67430   Biso      1.000     C          0.663215  
         C50       1.0000    0.25500   0.43350   0.64360   Biso      1.000     C          -0.183883           
         C51       1.0000    0.23540   0.58170   0.66210   Biso      1.000     C          0.395743  
         C52       1.0000    0.15430   0.68750   0.62750   Biso      1.000     C          -0.203522           
         C53       1.0000    0.58410   0.77360   0.11300   Biso      1.000     C          -0.193831           
         C54       1.0000    0.09090   0.65050   0.57980   Biso      1.000     C          -0.105633           
         C55       1.0000    0.18760   0.10050   0.09440   Biso      1.000     C          -0.14369  
         C56       1.0000    0.63080   0.80360   0.01740   Biso      1.000     C          -0.111144           
         H1        1.0000    0.35470   0.18500   0.01480   Biso      1.000     H          0.118833  
         H2        1.0000    0.32700   0.00900   0.84310   Biso      1.000     H          0.381175  
         H3        1.0000    0.51130   0.42640   0.91250   Biso      1.000     H          0.127924  
         H4        1.0000    0.80090   0.80220   0.91720   Biso      1.000     H          0.131887  
         H5        1.0000    0.85600   0.28650   0.86200   Biso      1.000     H          0.135542  
         H6        1.0000    0.96250   0.22350   0.94150   Biso      1.000     H          0.119197  
         H7        1.0000    0.14400   0.78650   0.63800   Biso      1.000     H          0.135543  
         H8        1.0000    0.64530   0.68500   0.48520   Biso      1.000     H          0.118834  
         H9        1.0000    0.72370   0.49820   0.54160   Biso      1.000     H          0.141221  
         H10       1.0000    0.80090   0.69780   0.41720   Biso      1.000     H          0.131888  
         H11       1.0000    0.03750   0.72350   0.55850   Biso      1.000     H          0.119196  
         H12       1.0000    0.72370   0.00180   0.04160   Biso      1.000     H          0.141222  
         H13       1.0000    0.64530   0.81500   0.98520   Biso      1.000     H          0.118834  
         H14       1.0000    0.48870   0.57360   0.08750   Biso      1.000     H          0.127923  
         H15       1.0000    0.14400   0.71350   0.13800   Biso      1.000     H          0.135543  
         H16       1.0000    0.03750   0.77650   0.05850   Biso      1.000     H          0.119195  
         H17       1.0000    0.19910   0.19780   0.08280   Biso      1.000     H          0.131888  
         H18       1.0000    0.67300   0.99100   0.15690   Biso      1.000     H          0.381175  
         H19       1.0000    0.27630   0.99820   0.95840   Biso      1.000     H          0.141222  
         H20       1.0000    0.27630   0.50180   0.45840   Biso      1.000     H          0.141222  
         H21       1.0000    0.35470   0.31500   0.51480   Biso      1.000     H          0.118834  
         H22       1.0000    0.48870   0.92640   0.58750   Biso      1.000     H          0.127924  
         H23       1.0000    0.85600   0.21350   0.36200   Biso      1.000     H          0.135543  
         H24       1.0000    0.19910   0.30220   0.58280   Biso      1.000     H          0.131888  
         H25       1.0000    0.67300   0.50900   0.65690   Biso      1.000     H          0.381174  
         H26       1.0000    0.96250   0.27650   0.44150   Biso      1.000     H          0.119195  
         H27       1.0000    0.32700   0.49100   0.34310   Biso      1.000     H          0.381175  
         H28       1.0000    0.51130   0.07360   0.41250   Biso      1.000     H          0.127923  
         Ho1       1.0000    0.49621   0.06093   0.73294   Biso      1.000     Ho          2.126386  
         Ho2       1.0000    0.50379   0.56093   0.76706   Biso      1.000     Ho          2.126386  
         Ho3       1.0000    0.49621   0.43907   0.23294   Biso      1.000     Ho          2.126387  
         Ho4       1.0000    0.50379   0.93907   0.26706   Biso      1.000     Ho          2.126386  
         N1        1.0000    0.96260   0.54800   0.48590   Biso      1.000     N          -0.155174           
         N2        1.0000    0.47580   0.05990   0.50680   Biso      1.000     N          -0.138803           
         N3        1.0000    0.03740   0.04800   0.01410   Biso      1.000     N          -0.155174           
         N4        1.0000    0.96260   0.95200   0.98590   Biso      1.000     N          -0.155093           
         N5        1.0000    0.03740   0.45200   0.51410   Biso      1.000     N          -0.155093           
         N6        1.0000    0.52420   0.94010   0.49320   Biso      1.000     N          -0.13871  
         N7        1.0000    0.52420   0.55990   0.99320   Biso      1.000     N          -0.138803           
         N8        1.0000    0.47580   0.44010   0.00680   Biso      1.000     N          -0.13871  
         O1        1.0000    0.70330   0.48310   0.63100   Biso      1.000     O          -0.476369           
         O2        1.0000    0.60010   0.63670   0.69481   Biso      1.000     O          -0.7123   
         O3        1.0000    0.33380   0.17950   0.65876   Biso      1.000     O          -0.629533           
         O4        1.0000    0.49830   0.86550   0.67514   Biso      1.000     O          -0.699075           
         O5        1.0000    0.57520   0.65950   0.28262   Biso      1.000     O          -0.84084  
         O6        1.0000    0.71790   0.12130   0.79128   Biso      1.000     O          -0.732722           
         O7        1.0000    0.49830   0.63450   0.17514   Biso      1.000     O          -0.699074           
         O8        1.0000    0.33380   0.32050   0.15876   Biso      1.000     O          -0.629534           
         O9        1.0000    0.60010   0.86330   0.19481   Biso      1.000     O          -0.7123   
         O10       1.0000    0.70330   0.01690   0.13100   Biso      1.000     O          -0.476368           
         O11       1.0000    0.28210   0.87870   0.20872   Biso      1.000     O          -0.732722           
         O12       1.0000    0.42480   0.15950   0.21738   Biso      1.000     O          -0.84084  
         O13       1.0000    0.50170   0.13450   0.32486   Biso      1.000     O          -0.699075           
         O14       1.0000    0.57520   0.84050   0.78262   Biso      1.000     O          -0.840839           
         O15       1.0000    0.66620   0.82050   0.34124   Biso      1.000     O          -0.629534           
         O16       1.0000    0.29670   0.51690   0.36900   Biso      1.000     O          -0.476369           
         O17       1.0000    0.71790   0.37870   0.29128   Biso      1.000     O          -0.732722           
         O18       1.0000    0.28210   0.62130   0.70872   Biso      1.000     O          -0.732722           
         O19       1.0000    0.50170   0.36550   0.82486   Biso      1.000     O          -0.699075           
         O20       1.0000    0.66620   0.67950   0.84124   Biso      1.000     O          -0.629533           
         O21       1.0000    0.39990   0.13670   0.80519   Biso      1.000     O          -0.7123   
         O22       1.0000    0.29670   0.98310   0.86900   Biso      1.000     O          -0.476368           
         O23       1.0000    0.39990   0.36330   0.30519   Biso      1.000     O          -0.7123   
         O24       1.0000    0.42480   0.34050   0.71738   Biso      1.000     O          -0.840839 