
##########################################################################
#               Crystallographic Information Format file
#               Produced by PyCifRW module
#
#  This is a CIF file.  CIF has been adopted by the International
#  Union of Crystallography as the standard for data archiving and
#  transmission.
#
#  For information on this file format, follow the CIF links at
#  http://www.iucr.org
##########################################################################

data_image0

_cell_length_a                          8.717
_cell_length_b                          13.083
_cell_length_c                          31.05
_cell_angle_alpha                       90
_cell_angle_beta                        90
_cell_angle_gamma                       90
_symmetry_space_group_name_H-M          'P 1'
_symmetry_int_tables_number             1
loop_
  _symmetry_equiv_pos_as_xyz
         'x, y, z' 
loop_
  _atom_site_label
  _atom_site_occupancy
  _atom_site_fract_x
  _atom_site_fract_y
  _atom_site_fract_z
  _atom_site_thermal_displace_type
  _atom_site_B_iso_or_equiv
  _atom_site_type_symbol
  _atom_site_charge
         C1        1.0000    0.53590   0.66390   0.20910   Biso      1.000     C          -0.348867           
         C2        1.0000    0.33230   0.98690   0.09612   Biso      1.000     C          0.668     
         C3        1.0000    0.46410   0.33610   0.70910   Biso      1.000     C          -0.348867           
         C4        1.0000    0.03540   0.67570   0.48150   Biso      1.000     C          0.712591  
         C5        1.0000    0.12800   0.63260   0.51800   Biso      1.000     C          -0.345871           
         C6        1.0000    0.05410   0.64520   0.56220   Biso      1.000     C          -0.122546           
         C7        1.0000    0.15810   0.60360   0.59840   Biso      1.000     C          -0.327473           
         C8        1.0000    0.16770   0.48690   0.59612   Biso      1.000     C          0.668     
         C9        1.0000    0.03590   0.83610   0.29090   Biso      1.000     C          -0.348867           
         C10       1.0000    0.12640   0.81250   0.33093   Biso      1.000     C          0.713321  
         C11       1.0000    0.46460   0.17570   0.51850   Biso      1.000     C          0.712591  
         C12       1.0000    0.37200   0.13260   0.48200   Biso      1.000     C          -0.345871           
         C13       1.0000    0.44590   0.14520   0.43780   Biso      1.000     C          -0.122546           
         C14       1.0000    0.34190   0.10360   0.40160   Biso      1.000     C          -0.327473           
         C15       1.0000    0.33230   0.98690   0.40388   Biso      1.000     C          0.668     
         C16       1.0000    0.62640   0.68750   0.16907   Biso      1.000     C          0.713321  
         C17       1.0000    0.96460   0.32430   0.98150   Biso      1.000     C          0.712591  
         C18       1.0000    0.87200   0.36740   0.01800   Biso      1.000     C          -0.345871           
         C19       1.0000    0.94590   0.35480   0.06220   Biso      1.000     C          -0.122546           
         C20       1.0000    0.84190   0.39640   0.09840   Biso      1.000     C          -0.327473           
         C21       1.0000    0.83230   0.51310   0.09612   Biso      1.000     C          0.668     
         C22       1.0000    0.96410   0.16390   0.79090   Biso      1.000     C          -0.348867           
         C23       1.0000    0.87360   0.18750   0.83093   Biso      1.000     C          0.713321  
         C24       1.0000    0.53540   0.82430   0.01850   Biso      1.000     C          0.712591  
         C25       1.0000    0.62800   0.86740   0.98200   Biso      1.000     C          -0.345871           
         C26       1.0000    0.55410   0.85480   0.93780   Biso      1.000     C          -0.122546           
         C27       1.0000    0.65810   0.89640   0.90160   Biso      1.000     C          -0.327473           
         C28       1.0000    0.66770   0.01310   0.90388   Biso      1.000     C          0.668     
         C29       1.0000    0.34190   0.10360   0.09840   Biso      1.000     C          -0.327473           
         C30       1.0000    0.44590   0.14520   0.06220   Biso      1.000     C          -0.122546           
         C31       1.0000    0.37360   0.31250   0.66907   Biso      1.000     C          0.713321  
         C32       1.0000    0.46460   0.17570   0.98150   Biso      1.000     C          0.712591  
         C33       1.0000    0.37460   0.31690   0.75000   Biso      1.000     C          -0.119789           
         C34       1.0000    0.12540   0.81690   0.25000   Biso      1.000     C          -0.119789           
         C35       1.0000    0.62540   0.68310   0.25000   Biso      1.000     C          -0.119789           
         C36       1.0000    0.87460   0.18310   0.75000   Biso      1.000     C          -0.119789           
         C37       1.0000    0.53590   0.66390   0.29090   Biso      1.000     C          -0.348867           
         C38       1.0000    0.62640   0.68750   0.33093   Biso      1.000     C          0.713321  
         C39       1.0000    0.96460   0.32430   0.51850   Biso      1.000     C          0.712591  
         C40       1.0000    0.87200   0.36740   0.48200   Biso      1.000     C          -0.345871           
         C41       1.0000    0.94590   0.35480   0.43780   Biso      1.000     C          -0.122546           
         C42       1.0000    0.84190   0.39640   0.40160   Biso      1.000     C          -0.327473           
         C43       1.0000    0.37200   0.13260   0.01800   Biso      1.000     C          -0.345871           
         C44       1.0000    0.96410   0.16390   0.70910   Biso      1.000     C          -0.348867           
         C45       1.0000    0.87360   0.18750   0.66907   Biso      1.000     C          0.713321  
         C46       1.0000    0.53540   0.82430   0.48150   Biso      1.000     C          0.712591  
         C47       1.0000    0.83230   0.51310   0.40388   Biso      1.000     C          0.668     
         C48       1.0000    0.55410   0.85480   0.56220   Biso      1.000     C          -0.122546           
         C49       1.0000    0.65810   0.89640   0.59840   Biso      1.000     C          -0.327473           
         C50       1.0000    0.66770   0.01310   0.59612   Biso      1.000     C          0.668     
         C51       1.0000    0.46410   0.33610   0.79090   Biso      1.000     C          -0.348867           
         C52       1.0000    0.37360   0.31250   0.83093   Biso      1.000     C          0.713321  
         C53       1.0000    0.03540   0.67570   0.01850   Biso      1.000     C          0.712591  
         C54       1.0000    0.12800   0.63260   0.98200   Biso      1.000     C          -0.345871           
         C55       1.0000    0.05410   0.64520   0.93780   Biso      1.000     C          -0.122546           
         C56       1.0000    0.15810   0.60360   0.90160   Biso      1.000     C          -0.327473           
         C57       1.0000    0.16770   0.48690   0.90388   Biso      1.000     C          0.668     
         C58       1.0000    0.62800   0.86740   0.51800   Biso      1.000     C          -0.345871           
         C59       1.0000    0.03590   0.83610   0.20910   Biso      1.000     C          -0.348867           
         C60       1.0000    0.12640   0.81250   0.16907   Biso      1.000     C          0.713321  
         H1        1.0000    0.78450   0.13960   0.75000   Biso      1.000     H          0.105375  
         H2        1.0000    0.83960   0.25350   0.75000   Biso      1.000     H          0.099482  
         H3        1.0000    0.71550   0.63960   0.25000   Biso      1.000     H          0.105375  
         H4        1.0000    0.44390   0.70560   0.29060   Biso      1.000     H          0.140214  
         H5        1.0000    0.21550   0.86040   0.25000   Biso      1.000     H          0.105375  
         H6        1.0000    0.16040   0.74650   0.25000   Biso      1.000     H          0.099482  
         H7        1.0000    0.28450   0.36040   0.75000   Biso      1.000     H          0.105375  
         H8        1.0000    0.66040   0.75350   0.25000   Biso      1.000     H          0.099482  
         H9        1.0000    0.50440   0.59280   0.29160   Biso      1.000     H          0.146918  
         H10       1.0000    0.33960   0.24650   0.75000   Biso      1.000     H          0.099482  
         H11       1.0000    0.85510   0.43960   0.48730   Biso      1.000     H          0.154841  
         H12       1.0000    0.14490   0.56040   0.51270   Biso      1.000     H          0.154841  
         H13       1.0000    0.95700   0.60910   0.56270   Biso      1.000     H          0.104176  
         H14       1.0000    0.03360   0.71700   0.56740   Biso      1.000     H          0.099641  
         H15       1.0000    0.26000   0.63250   0.59560   Biso      1.000     H          0.129353  
         H16       1.0000    0.11710   0.62390   0.62620   Biso      1.000     H          0.137729  
         H17       1.0000    0.94390   0.79440   0.29060   Biso      1.000     H          0.140214  
         H18       1.0000    0.00440   0.90720   0.29160   Biso      1.000     H          0.146918  
         H19       1.0000    0.27250   0.16590   0.48170   Biso      1.000     H          0.136648  
         H20       1.0000    0.35510   0.06040   0.48730   Biso      1.000     H          0.154841  
         H21       1.0000    0.54300   0.10910   0.43730   Biso      1.000     H          0.104176  
         H22       1.0000    0.77250   0.33410   0.48170   Biso      1.000     H          0.136648  
         H23       1.0000    0.24000   0.13250   0.40440   Biso      1.000     H          0.129353  
         H24       1.0000    0.38290   0.12390   0.37380   Biso      1.000     H          0.137729  
         H25       1.0000    0.44390   0.70560   0.20940   Biso      1.000     H          0.140214  
         H26       1.0000    0.50440   0.59280   0.20840   Biso      1.000     H          0.146918  
         H27       1.0000    0.77250   0.33410   0.01830   Biso      1.000     H          0.136648  
         H28       1.0000    0.85510   0.43960   0.01270   Biso      1.000     H          0.154841  
         H29       1.0000    0.04300   0.39090   0.06270   Biso      1.000     H          0.104176  
         H30       1.0000    0.96640   0.28300   0.06740   Biso      1.000     H          0.099641  
         H31       1.0000    0.74000   0.36750   0.09560   Biso      1.000     H          0.129353  
         H32       1.0000    0.88290   0.37610   0.12620   Biso      1.000     H          0.137729  
         H33       1.0000    0.05610   0.20560   0.79060   Biso      1.000     H          0.140214  
         H34       1.0000    0.99560   0.09280   0.79160   Biso      1.000     H          0.146918  
         H35       1.0000    0.72750   0.83410   0.98170   Biso      1.000     H          0.136648  
         H36       1.0000    0.64490   0.93960   0.98730   Biso      1.000     H          0.154841  
         H37       1.0000    0.45700   0.89090   0.93730   Biso      1.000     H          0.104176  
         H38       1.0000    0.53360   0.78300   0.93260   Biso      1.000     H          0.099641  
         H39       1.0000    0.76000   0.86750   0.90440   Biso      1.000     H          0.129353  
         H40       1.0000    0.61710   0.87610   0.87380   Biso      1.000     H          0.137729  
         H41       1.0000    0.22750   0.66590   0.51830   Biso      1.000     H          0.136648  
         H42       1.0000    0.49560   0.40720   0.70840   Biso      1.000     H          0.146918  
         H43       1.0000    0.46640   0.21700   0.43260   Biso      1.000     H          0.099641  
         H44       1.0000    0.38290   0.12390   0.12620   Biso      1.000     H          0.137729  
         H45       1.0000    0.04300   0.39090   0.43730   Biso      1.000     H          0.104176  
         H46       1.0000    0.96640   0.28300   0.43260   Biso      1.000     H          0.099641  
         H47       1.0000    0.55610   0.29440   0.70940   Biso      1.000     H          0.140214  
         H48       1.0000    0.88290   0.37610   0.37380   Biso      1.000     H          0.137729  
         H49       1.0000    0.05610   0.20560   0.70940   Biso      1.000     H          0.140214  
         H50       1.0000    0.99560   0.09280   0.70840   Biso      1.000     H          0.146918  
         H51       1.0000    0.72750   0.83410   0.51830   Biso      1.000     H          0.136648  
         H52       1.0000    0.64490   0.93960   0.51270   Biso      1.000     H          0.154841  
         H53       1.0000    0.45700   0.89090   0.56270   Biso      1.000     H          0.104176  
         H54       1.0000    0.53360   0.78300   0.56740   Biso      1.000     H          0.099641  
         H55       1.0000    0.76000   0.86750   0.59560   Biso      1.000     H          0.129353  
         H56       1.0000    0.61710   0.87610   0.62620   Biso      1.000     H          0.137729  
         H57       1.0000    0.55610   0.29440   0.79060   Biso      1.000     H          0.140214  
         H58       1.0000    0.49560   0.40720   0.79160   Biso      1.000     H          0.146918  
         H59       1.0000    0.74000   0.36750   0.40440   Biso      1.000     H          0.129353  
         H60       1.0000    0.14490   0.56040   0.98730   Biso      1.000     H          0.154841  
         H61       1.0000    0.22750   0.66590   0.98170   Biso      1.000     H          0.136648  
         H62       1.0000    0.24000   0.13250   0.09560   Biso      1.000     H          0.129353  
         H63       1.0000    0.54300   0.10910   0.06270   Biso      1.000     H          0.104176  
         H64       1.0000    0.35510   0.06040   0.01270   Biso      1.000     H          0.154841  
         H65       1.0000    0.27250   0.16590   0.01830   Biso      1.000     H          0.136648  
         H66       1.0000    0.00440   0.90720   0.20840   Biso      1.000     H          0.146918  
         H67       1.0000    0.46640   0.21700   0.06740   Biso      1.000     H          0.099641  
         H68       1.0000    0.94390   0.79440   0.20940   Biso      1.000     H          0.140214  
         H69       1.0000    0.11710   0.62390   0.87380   Biso      1.000     H          0.137729  
         H70       1.0000    0.26000   0.63250   0.90440   Biso      1.000     H          0.129353  
         H71       1.0000    0.03360   0.71700   0.93260   Biso      1.000     H          0.099641  
         H72       1.0000    0.95700   0.60910   0.93730   Biso      1.000     H          0.104176  
         O1        1.0000    0.28750   0.44210   0.91538   Biso      1.000     O          -0.656312           
         O2        1.0000    0.05680   0.78380   0.13472   Biso      1.000     O          -0.78951  
         O3        1.0000    0.26810   0.82380   0.16865   Biso      1.000     O          -0.601198           
         O4        1.0000    0.39440   0.21300   0.94886   Biso      1.000     O          -0.789981           
         O5        1.0000    0.45230   0.93520   0.10492   Biso      1.000     O          -0.677887           
         O6        1.0000    0.23190   0.32380   0.66865   Biso      1.000     O          -0.601198           
         O7        1.0000    0.21250   0.94210   0.08462   Biso      1.000     O          -0.656312           
         O8        1.0000    0.44320   0.28380   0.63472   Biso      1.000     O          -0.78951  
         O9        1.0000    0.04770   0.43520   0.89508   Biso      1.000     O          -0.677887           
         O10       1.0000    0.10560   0.71300   0.44886   Biso      1.000     O          -0.789981           
         O11       1.0000    0.60850   0.17380   0.98249   Biso      1.000     O          -0.61353  
         O12       1.0000    0.89150   0.67380   0.01751   Biso      1.000     O          -0.61353  
         O13       1.0000    0.10850   0.32620   0.51751   Biso      1.000     O          -0.61353  
         O14       1.0000    0.23190   0.32380   0.83135   Biso      1.000     O          -0.601198           
         O15       1.0000    0.44320   0.28380   0.86528   Biso      1.000     O          -0.78951  
         O16       1.0000    0.78750   0.05790   0.58462   Biso      1.000     O          -0.656312           
         O17       1.0000    0.54770   0.06480   0.60492   Biso      1.000     O          -0.677886           
         O18       1.0000    0.89440   0.28700   0.55114   Biso      1.000     O          -0.789981           
         O19       1.0000    0.95230   0.56480   0.39508   Biso      1.000     O          -0.677887           
         O20       1.0000    0.71250   0.55790   0.41538   Biso      1.000     O          -0.656312           
         O21       1.0000    0.94320   0.21620   0.63472   Biso      1.000     O          -0.78951  
         O22       1.0000    0.73190   0.17620   0.66865   Biso      1.000     O          -0.601198           
         O23       1.0000    0.60560   0.78700   0.44886   Biso      1.000     O          -0.789981           
         O24       1.0000    0.39150   0.82620   0.48249   Biso      1.000     O          -0.61353  
         O25       1.0000    0.89150   0.67380   0.48249   Biso      1.000     O          -0.61353  
         O26       1.0000    0.10560   0.71300   0.05114   Biso      1.000     O          -0.789981           
         O27       1.0000    0.04770   0.43520   0.60492   Biso      1.000     O          -0.677886           
         O28       1.0000    0.55680   0.71620   0.36528   Biso      1.000     O          -0.78951  
         O29       1.0000    0.05680   0.78380   0.36528   Biso      1.000     O          -0.78951  
         O30       1.0000    0.76810   0.67620   0.33135   Biso      1.000     O          -0.601198           
         O31       1.0000    0.78750   0.05790   0.91538   Biso      1.000     O          -0.656312           
         O32       1.0000    0.54770   0.06480   0.89508   Biso      1.000     O          -0.677887           
         O33       1.0000    0.39150   0.82620   0.01751   Biso      1.000     O          -0.61353  
         O34       1.0000    0.60560   0.78700   0.05114   Biso      1.000     O          -0.789981           
         O35       1.0000    0.28750   0.44210   0.58462   Biso      1.000     O          -0.656312           
         O36       1.0000    0.94320   0.21620   0.86528   Biso      1.000     O          -0.78951  
         O37       1.0000    0.71250   0.55790   0.08462   Biso      1.000     O          -0.656312           
         O38       1.0000    0.95230   0.56480   0.10492   Biso      1.000     O          -0.677887           
         O39       1.0000    0.73190   0.17620   0.83135   Biso      1.000     O          -0.601198           
         O40       1.0000    0.89440   0.28700   0.94886   Biso      1.000     O          -0.789981           
         O41       1.0000    0.76810   0.67620   0.16865   Biso      1.000     O          -0.601198           
         O42       1.0000    0.55680   0.71620   0.13472   Biso      1.000     O          -0.78951  
         O43       1.0000    0.21250   0.94210   0.41538   Biso      1.000     O          -0.656312           
         O44       1.0000    0.45230   0.93520   0.39508   Biso      1.000     O          -0.677887           
         O45       1.0000    0.60850   0.17380   0.51751   Biso      1.000     O          -0.61353  
         O46       1.0000    0.39440   0.21300   0.55114   Biso      1.000     O          -0.789981           
         O47       1.0000    0.26810   0.82380   0.33135   Biso      1.000     O          -0.601198           
         O48       1.0000    0.10850   0.32620   0.98249   Biso      1.000     O          -0.61353  
         Pr1       1.0000    0.83122   0.73915   0.09330   Biso      1.000     Pr          2.087209  
         Pr2       1.0000    0.33122   0.76085   0.40670   Biso      1.000     Pr          2.087209  
         Pr3       1.0000    0.16878   0.26085   0.59330   Biso      1.000     Pr          2.087209  
         Pr4       1.0000    0.83122   0.73915   0.40670   Biso      1.000     Pr          2.087209  
         Pr5       1.0000    0.16878   0.26085   0.90670   Biso      1.000     Pr          2.087209  
         Pr6       1.0000    0.66878   0.23915   0.59330   Biso      1.000     Pr          2.087209  
         Pr7       1.0000    0.33122   0.76085   0.09330   Biso      1.000     Pr          2.087209  
         Pr8       1.0000    0.66878   0.23915   0.90670   Biso      1.000     Pr          2.087209 