
##########################################################################
#               Crystallographic Information Format file
#               Produced by PyCifRW module
#
#  This is a CIF file.  CIF has been adopted by the International
#  Union of Crystallography as the standard for data archiving and
#  transmission.
#
#  For information on this file format, follow the CIF links at
#  http://www.iucr.org
##########################################################################

data_image0

_cell_length_a                          19.2341
_cell_length_b                          11.073
_cell_length_c                          6.889
_cell_angle_alpha                       90
_cell_angle_beta                        71.69
_cell_angle_gamma                       90
_symmetry_space_group_name_H-M          'P 1'
_symmetry_int_tables_number             1
loop_
  _symmetry_equiv_pos_as_xyz
         'x, y, z' 
loop_
  _atom_site_label
  _atom_site_occupancy
  _atom_site_fract_x
  _atom_site_fract_y
  _atom_site_fract_z
  _atom_site_thermal_displace_type
  _atom_site_B_iso_or_equiv
  _atom_site_type_symbol
  _atom_site_charge
         C1        1.0000    0.77480   0.78430   0.79900   Biso      1.000     C          -0.105499           
         C2        1.0000    0.89150   0.13400   0.34350   Biso      1.000     C          0.598016  
         C3        1.0000    0.79150   0.22950   0.62600   Biso      1.000     C          -0.106875           
         C4        1.0000    0.10850   0.86600   0.65650   Biso      1.000     C          0.598016  
         C5        1.0000    0.22520   0.78430   0.70100   Biso      1.000     C          -0.105416           
         C6        1.0000    0.18150   0.80540   0.57810   Biso      1.000     C          -0.016446           
         C7        1.0000    0.31850   0.69460   0.42190   Biso      1.000     C          -0.016669           
         C8        1.0000    0.27480   0.71570   0.29900   Biso      1.000     C          -0.105858           
         C9        1.0000    0.81850   0.19460   0.42190   Biso      1.000     C          -0.016444           
         C10       1.0000    0.39150   0.63400   0.34350   Biso      1.000     C          0.595946  
         C11       1.0000    0.29150   0.27050   0.12600   Biso      1.000     C          -0.106266           
         C12       1.0000    0.39150   0.36600   0.84350   Biso      1.000     C          0.597746  
         C13       1.0000    0.81850   0.80540   0.92190   Biso      1.000     C          -0.016204           
         C14       1.0000    0.27480   0.28430   0.79900   Biso      1.000     C          -0.105837           
         C15       1.0000    0.89150   0.86600   0.84350   Biso      1.000     C          0.597928  
         C16       1.0000    0.79150   0.77050   0.12600   Biso      1.000     C          -0.10658  
         C17       1.0000    0.31850   0.30540   0.92190   Biso      1.000     C          -0.01626  
         C18       1.0000    0.29150   0.72950   0.62600   Biso      1.000     C          -0.107838           
         C19       1.0000    0.20850   0.77050   0.37400   Biso      1.000     C          -0.106861           
         C20       1.0000    0.77480   0.21570   0.29900   Biso      1.000     C          -0.105417           
         C21       1.0000    0.68150   0.30540   0.57810   Biso      1.000     C          -0.016671           
         C22       1.0000    0.72520   0.28430   0.70100   Biso      1.000     C          -0.105843           
         C23       1.0000    0.70850   0.72950   0.87400   Biso      1.000     C          -0.106252           
         C24       1.0000    0.60850   0.63400   0.15650   Biso      1.000     C          0.597745  
         C25       1.0000    0.72520   0.71570   0.20100   Biso      1.000     C          -0.105823           
         C26       1.0000    0.18150   0.19460   0.07810   Biso      1.000     C          -0.016206           
         C27       1.0000    0.68150   0.69460   0.07810   Biso      1.000     C          -0.016263           
         C28       1.0000    0.60850   0.36600   0.65650   Biso      1.000     C          0.595946  
         C29       1.0000    0.70850   0.27050   0.37400   Biso      1.000     C          -0.107838           
         C30       1.0000    0.22520   0.21570   0.20100   Biso      1.000     C          -0.105486           
         C31       1.0000    0.10850   0.13400   0.15650   Biso      1.000     C          0.597928  
         C32       1.0000    0.20850   0.22950   0.87400   Biso      1.000     C          -0.106566           
         Fe1       1.0000    0.00000   0.00000   0.00000   Biso      1.000     Fe          1.057273  
         Fe2       1.0000    0.50000   0.50000   0.50000   Biso      1.000     Fe          1.101198  
         Fe3       1.0000    0.50000   0.50000   0.00000   Biso      1.000     Fe          1.017685  
         Fe4       1.0000    0.00000   0.00000   0.50000   Biso      1.000     Fe          1.064499  
         H1        1.0000    0.68070   0.28490   0.28760   Biso      1.000     H          0.123269  
         H2        1.0000    0.20880   0.80810   0.83740   Biso      1.000     H          0.121236  
         H3        1.0000    0.70880   0.30810   0.83740   Biso      1.000     H          0.121136  
         H4        1.0000    0.18070   0.78490   0.28760   Biso      1.000     H          0.123597  
         H5        1.0000    0.31930   0.28490   0.21240   Biso      1.000     H          0.123567  
         H6        1.0000    0.00000   0.82789   0.25000   Biso      1.000     H          0.423402  
         H7        1.0000    0.29120   0.30810   0.66260   Biso      1.000     H          0.121227  
         H8        1.0000    0.20880   0.19190   0.33740   Biso      1.000     H          0.121381  
         H9        1.0000    0.31930   0.71510   0.71240   Biso      1.000     H          0.123269  
         H10       1.0000    0.79120   0.19190   0.16260   Biso      1.000     H          0.121236  
         H11       1.0000    0.50000   0.32789   0.25000   Biso      1.000     H          0.424704  
         H12       1.0000    0.70880   0.69190   0.33740   Biso      1.000     H          0.121226  
         H13       1.0000    0.81930   0.21510   0.71240   Biso      1.000     H          0.123598  
         H14       1.0000    0.29120   0.69190   0.16260   Biso      1.000     H          0.121137  
         H15       1.0000    0.00000   0.17211   0.75000   Biso      1.000     H          0.423402  
         H16       1.0000    0.50000   0.67211   0.75000   Biso      1.000     H          0.424704  
         H17       1.0000    0.68070   0.71510   0.78760   Biso      1.000     H          0.123566  
         H18       1.0000    0.18070   0.21510   0.78760   Biso      1.000     H          0.123541  
         H19       1.0000    0.79120   0.80810   0.66260   Biso      1.000     H          0.121382  
         H20       1.0000    0.81930   0.78490   0.21240   Biso      1.000     H          0.123542  
         O1        1.0000    0.07120   0.12600   0.03910   Biso      1.000     O          -0.488363           
         O2        1.0000    0.58880   0.39940   0.84370   Biso      1.000     O          -0.488944           
         O3        1.0000    0.57120   0.37400   0.53910   Biso      1.000     O          -0.494466           
         O4        1.0000    0.00000   0.08180   0.75000   Biso      1.000     O          -0.74646  
         O5        1.0000    0.50000   0.58180   0.75000   Biso      1.000     O          -0.740403           
         O6        1.0000    0.08880   0.10060   0.34370   Biso      1.000     O          -0.490601           
         O7        1.0000    0.91120   0.89940   0.65630   Biso      1.000     O          -0.490601           
         O8        1.0000    0.08880   0.89940   0.84370   Biso      1.000     O          -0.495331           
         O9        1.0000    0.58880   0.60060   0.34370   Biso      1.000     O          -0.495344           
         O10       1.0000    0.07120   0.87400   0.53910   Biso      1.000     O          -0.492449           
         O11       1.0000    0.92880   0.12600   0.46090   Biso      1.000     O          -0.492449           
         O12       1.0000    0.91120   0.10060   0.15630   Biso      1.000     O          -0.495331           
         O13       1.0000    0.42880   0.62600   0.46090   Biso      1.000     O          -0.494466           
         O14       1.0000    0.41120   0.60060   0.15630   Biso      1.000     O          -0.488944           
         O15       1.0000    0.41120   0.39940   0.65630   Biso      1.000     O          -0.495344           
         O16       1.0000    0.42880   0.37400   0.96090   Biso      1.000     O          -0.488954           
         O17       1.0000    0.00000   0.91820   0.25000   Biso      1.000     O          -0.74646  
         O18       1.0000    0.92880   0.87400   0.96090   Biso      1.000     O          -0.488362           
         O19       1.0000    0.57120   0.62600   0.03910   Biso      1.000     O          -0.488954           
         O20       1.0000    0.50000   0.41820   0.25000   Biso      1.000     O          -0.740403 