
##########################################################################
#               Crystallographic Information Format file
#               Produced by PyCifRW module
#
#  This is a CIF file.  CIF has been adopted by the International
#  Union of Crystallography as the standard for data archiving and
#  transmission.
#
#  For information on this file format, follow the CIF links at
#  http://www.iucr.org
##########################################################################

data_image0

_cell_length_a                          8.6777
_cell_length_b                          15.915
_cell_length_c                          15.915
_cell_angle_alpha                       120
_cell_angle_beta                        90
_cell_angle_gamma                       90
_symmetry_space_group_name_H-M          'P 1'
_symmetry_int_tables_number             1
loop_
  _symmetry_equiv_pos_as_xyz
         'x, y, z' 
loop_
  _atom_site_label
  _atom_site_occupancy
  _atom_site_fract_x
  _atom_site_fract_y
  _atom_site_fract_z
  _atom_site_thermal_displace_type
  _atom_site_B_iso_or_equiv
  _atom_site_type_symbol
  _atom_site_charge
         C1        1.0000    0.04757   0.23940   0.88050   Biso      1.000     C          -0.549411           
         C2        1.0000    0.38090   0.35890   0.23940   Biso      1.000     C          -0.550146           
         C3        1.0000    0.22990   0.45330   0.17450   Biso      1.000     C          -0.54     
         C4        1.0000    0.38860   0.42960   0.20040   Biso      1.000     C          0.280986  
         C5        1.0000    0.48860   0.60550   0.88860   Biso      1.000     C          0.418579  
         C6        1.0000    0.53920   0.16420   0.88110   Biso      1.000     C          -0.493628           
         C7        1.0000    0.56900   0.72830   0.04810   Biso      1.000     C          0.0751    
         C8        1.0000    0.51770   0.66870   0.09340   Biso      1.000     C          0.57274   
         C9        1.0000    0.22990   0.54670   0.82550   Biso      1.000     C          -0.539996           
         C10       1.0000    0.89657   0.17450   0.72120   Biso      1.000     C          -0.539091           
         C11       1.0000    0.85103   0.42470   0.33130   Biso      1.000     C          0.572369  
         C12       1.0000    0.05527   0.20040   0.77080   Biso      1.000     C          0.279904  
         C13       1.0000    0.20587   0.88110   0.71690   Biso      1.000     C          -0.491887           
         C14       1.0000    0.23567   0.04810   0.31980   Biso      1.000     C          0.073027  
         C15       1.0000    0.18437   0.09340   0.42470   Biso      1.000     C          0.57337   
         C16       1.0000    0.71423   0.11950   0.35890   Biso      1.000     C          -0.550868           
         C17       1.0000    0.56323   0.27880   0.45330   Biso      1.000     C          -0.538711           
         C18       1.0000    0.72193   0.22920   0.42960   Biso      1.000     C          0.281245  
         C19       1.0000    0.82193   0.71690   0.60550   Biso      1.000     C          0.420069  
         C20       1.0000    0.87253   0.28310   0.16420   Biso      1.000     C          -0.490978           
         C21       1.0000    0.90233   0.68020   0.72830   Biso      1.000     C          0.073525  
         C22       1.0000    0.15527   0.88860   0.28310   Biso      1.000     C          0.419785  
         C23       1.0000    0.90233   0.31980   0.27170   Biso      1.000     C          0.073526  
         C24       1.0000    0.87253   0.71690   0.83580   Biso      1.000     C          -0.490974           
         C25       1.0000    0.82193   0.28310   0.39450   Biso      1.000     C          0.420078  
         C26       1.0000    0.51770   0.33130   0.90660   Biso      1.000     C          0.572737  
         C27       1.0000    0.56900   0.27170   0.95190   Biso      1.000     C          0.075097  
         C28       1.0000    0.53920   0.83580   0.11890   Biso      1.000     C          -0.49363  
         C29       1.0000    0.48860   0.39450   0.11140   Biso      1.000     C          0.418567  
         C30       1.0000    0.38860   0.57040   0.79960   Biso      1.000     C          0.280979  
         C31       1.0000    0.85103   0.57530   0.66870   Biso      1.000     C          0.572359  
         C32       1.0000    0.04757   0.76060   0.11950   Biso      1.000     C          -0.549424           
         C33       1.0000    0.89657   0.82550   0.27880   Biso      1.000     C          -0.539096           
         C34       1.0000    0.38090   0.64110   0.76060   Biso      1.000     C          -0.550138           
         C35       1.0000    0.15527   0.11140   0.71690   Biso      1.000     C          0.419795  
         C36       1.0000    0.20587   0.11890   0.28310   Biso      1.000     C          -0.491883           
         C37       1.0000    0.23567   0.95190   0.68020   Biso      1.000     C          0.073033  
         C38       1.0000    0.18437   0.90660   0.57530   Biso      1.000     C          0.57338   
         C39       1.0000    0.71423   0.88050   0.64110   Biso      1.000     C          -0.550873           
         C40       1.0000    0.56323   0.72120   0.54670   Biso      1.000     C          -0.538715           
         C41       1.0000    0.72193   0.77080   0.57040   Biso      1.000     C          0.281252  
         C42       1.0000    0.05527   0.79960   0.22920   Biso      1.000     C          0.279913  
         Cl1       1.0000    0.17793   0.33156   0.58493   Biso      1.000     Cl          -0.52731  
         Cl2       1.0000    0.51127   0.25337   0.66844   Biso      1.000     Cl          -0.527203           
         Cl3       1.0000    0.84460   0.58493   0.25337   Biso      1.000     Cl          -0.527181           
         Cl4       1.0000    0.17793   0.66844   0.41507   Biso      1.000     Cl          -0.527269           
         Cl5       1.0000    0.51127   0.74663   0.33156   Biso      1.000     Cl          -0.527164           
         Cl6       1.0000    0.84460   0.41507   0.74663   Biso      1.000     Cl          -0.527221           
         Cu1       1.0000    0.89000   0.38141   0.59095   Biso      1.000     Cu          0.813988  
         Cu2       1.0000    0.55667   0.59095   0.20954   Biso      1.000     Cu          0.814374  
         Cu3       1.0000    0.22333   0.79046   0.38141   Biso      1.000     Cu          0.8147    
         Cu4       1.0000    0.89000   0.61859   0.40905   Biso      1.000     Cu          0.813985  
         Cu5       1.0000    0.55667   0.40905   0.79046   Biso      1.000     Cu          0.814379  
         Cu6       1.0000    0.22333   0.20954   0.61859   Biso      1.000     Cu          0.814702  
         H1        1.0000    0.25507   0.09550   0.22130   Biso      1.000     H          0.142157  
         H2        1.0000    0.24697   0.18150   0.32870   Biso      1.000     H          0.176744  
         H3        1.0000    0.09697   0.12430   0.27630   Biso      1.000     H          0.151157  
         H4        1.0000    0.83197   0.76900   0.25040   Biso      1.000     H          0.18144   
         H5        1.0000    0.84997   0.87540   0.27020   Biso      1.000     H          0.157664  
         H6        1.0000    0.90877   0.84840   0.34680   Biso      1.000     H          0.18      
         H7        1.0000    0.14907   0.74270   0.09230   Biso      1.000     H          0.168648  
         H8        1.0000    0.89233   0.77630   0.50690   Biso      1.000     H          0.32076   
         H9        1.0000    0.00727   0.81000   0.10780   Biso      1.000     H          0.144046  
         H10       1.0000    0.33667   0.04000   0.32100   Biso      1.000     H          0.088827  
         H11       1.0000    0.06807   0.67810   0.23480   Biso      1.000     H          0.367396  
         H12       1.0000    0.22567   0.73060   0.22370   Biso      1.000     H          0.321093  
         H13       1.0000    0.98147   0.70480   0.08980   Biso      1.000     H          0.199085  
         H14       1.0000    0.73473   0.76520   0.44330   Biso      1.000     H          0.367438  
         H15       1.0000    0.08467   0.93100   0.19800   Biso      1.000     H          0.258067  
         H16       1.0000    0.75133   0.80200   0.73300   Biso      1.000     H          0.258601  
         H17       1.0000    0.09697   0.87570   0.72370   Biso      1.000     H          0.151176  
         H18       1.0000    0.24697   0.81850   0.67130   Biso      1.000     H          0.176753  
         H19       1.0000    0.25507   0.90450   0.77870   Biso      1.000     H          0.142199  
         H20       1.0000    0.89233   0.22370   0.49310   Biso      1.000     H          0.32075   
         H21       1.0000    0.73473   0.23480   0.55670   Biso      1.000     H          0.367426  
         H22       1.0000    0.00333   0.32100   0.28100   Biso      1.000     H          0.088761  
         H23       1.0000    0.75133   0.19800   0.26700   Biso      1.000     H          0.258608  
         H24       1.0000    0.67393   0.10780   0.29780   Biso      1.000     H          0.144267  
         H25       1.0000    0.81573   0.09230   0.34960   Biso      1.000     H          0.168789  
         H26       1.0000    0.64813   0.08980   0.38500   Biso      1.000     H          0.199517  
         H27       1.0000    0.57543   0.34680   0.49840   Biso      1.000     H          0.18037   
         H28       1.0000    0.51663   0.27020   0.39480   Biso      1.000     H          0.157061  
         H29       1.0000    0.00333   0.67900   0.71900   Biso      1.000     H          0.088749  
         H30       1.0000    0.76363   0.27630   0.15200   Biso      1.000     H          0.151075  
         H31       1.0000    0.91363   0.32870   0.14720   Biso      1.000     H          0.176218  
         H32       1.0000    0.92173   0.22130   0.12580   Biso      1.000     H          0.142008  
         H33       1.0000    0.55900   0.50690   0.73060   Biso      1.000     H          0.321249  
         H34       1.0000    0.40140   0.44330   0.67810   Biso      1.000     H          0.367805  
         H35       1.0000    0.67000   0.71900   0.04000   Biso      1.000     H          0.088079  
         H36       1.0000    0.41800   0.73300   0.93100   Biso      1.000     H          0.258577  
         H37       1.0000    0.34060   0.70220   0.81000   Biso      1.000     H          0.14397   
         H38       1.0000    0.48240   0.65040   0.74270   Biso      1.000     H          0.168976  
         H39       1.0000    0.31480   0.61500   0.70480   Biso      1.000     H          0.199067  
         H40       1.0000    0.24210   0.50160   0.84840   Biso      1.000     H          0.180381  
         H41       1.0000    0.18330   0.60520   0.87540   Biso      1.000     H          0.157721  
         H42       1.0000    0.16530   0.51860   0.76900   Biso      1.000     H          0.181644  
         H43       1.0000    0.43030   0.84800   0.12430   Biso      1.000     H          0.15178   
         H44       1.0000    0.58030   0.85280   0.18150   Biso      1.000     H          0.176885  
         H45       1.0000    0.58840   0.87420   0.09550   Biso      1.000     H          0.142681  
         H46       1.0000    0.83197   0.23100   0.74960   Biso      1.000     H          0.181436  
         H47       1.0000    0.84997   0.12460   0.72980   Biso      1.000     H          0.157639  
         H48       1.0000    0.49863   0.25040   0.48140   Biso      1.000     H          0.181064  
         H49       1.0000    0.98147   0.29520   0.91020   Biso      1.000     H          0.199035  
         H50       1.0000    0.90877   0.15160   0.65320   Biso      1.000     H          0.179975  
         H51       1.0000    0.49863   0.74960   0.51860   Biso      1.000     H          0.181065  
         H52       1.0000    0.51663   0.72980   0.60520   Biso      1.000     H          0.157081  
         H53       1.0000    0.57543   0.65320   0.50160   Biso      1.000     H          0.180385  
         H54       1.0000    0.64813   0.91020   0.61500   Biso      1.000     H          0.199548  
         H55       1.0000    0.81573   0.90770   0.65040   Biso      1.000     H          0.168816  
         H56       1.0000    0.76363   0.72370   0.84800   Biso      1.000     H          0.151055  
         H57       1.0000    0.91363   0.67130   0.85280   Biso      1.000     H          0.176203  
         H58       1.0000    0.92173   0.77870   0.87420   Biso      1.000     H          0.141957  
         H59       1.0000    0.55900   0.49310   0.26940   Biso      1.000     H          0.321259  
         H60       1.0000    0.67393   0.89220   0.70220   Biso      1.000     H          0.144296  
         H61       1.0000    0.40140   0.55670   0.32190   Biso      1.000     H          0.367816  
         H62       1.0000    0.67000   0.28100   0.96000   Biso      1.000     H          0.088059  
         H63       1.0000    0.34060   0.29780   0.19000   Biso      1.000     H          0.143998  
         H64       1.0000    0.41800   0.26700   0.06900   Biso      1.000     H          0.258563  
         H65       1.0000    0.22567   0.26940   0.77630   Biso      1.000     H          0.321084  
         H66       1.0000    0.31480   0.38500   0.29520   Biso      1.000     H          0.199095  
         H67       1.0000    0.24210   0.49840   0.15160   Biso      1.000     H          0.180397  
         H68       1.0000    0.18330   0.39480   0.12460   Biso      1.000     H          0.15774   
         H69       1.0000    0.16530   0.48140   0.23100   Biso      1.000     H          0.181641  
         H70       1.0000    0.43030   0.15200   0.87570   Biso      1.000     H          0.15175   
         H71       1.0000    0.58030   0.14720   0.81850   Biso      1.000     H          0.176861  
         H72       1.0000    0.58840   0.12580   0.90450   Biso      1.000     H          0.142629  
         H73       1.0000    0.48240   0.34960   0.25730   Biso      1.000     H          0.169     
         H74       1.0000    0.06807   0.32190   0.76520   Biso      1.000     H          0.367381  
         H75       1.0000    0.33667   0.96000   0.67900   Biso      1.000     H          0.088837  
         H76       1.0000    0.08467   0.06900   0.80200   Biso      1.000     H          0.258083  
         H77       1.0000    0.00727   0.19000   0.89220   Biso      1.000     H          0.144013  
         H78       1.0000    0.14907   0.25730   0.90770   Biso      1.000     H          0.168611  
         N1        1.0000    0.12877   0.72690   0.25060   Biso      1.000     N          -0.705903           
         N2        1.0000    0.15097   0.04320   0.74060   Biso      1.000     N          -0.348341           
         N3        1.0000    0.81763   0.25940   0.30260   Biso      1.000     N          -0.349869           
         N4        1.0000    0.15097   0.95680   0.25940   Biso      1.000     N          -0.348322           
         N5        1.0000    0.48430   0.69740   0.95680   Biso      1.000     N          -0.348763           
         N6        1.0000    0.46210   0.52370   0.27310   Biso      1.000     N          -0.706826           
         N7        1.0000    0.12877   0.27310   0.74940   Biso      1.000     N          -0.705891           
         N8        1.0000    0.81763   0.74060   0.69740   Biso      1.000     N          -0.349852           
         N9        1.0000    0.79543   0.25060   0.52370   Biso      1.000     N          -0.706154           
         N10       1.0000    0.48430   0.30260   0.04320   Biso      1.000     N          -0.348744           
         N11       1.0000    0.46210   0.47630   0.72690   Biso      1.000     N          -0.706815           
         N12       1.0000    0.79543   0.74940   0.47630   Biso      1.000     N          -0.70617  
         O1        1.0000    0.29567   0.87220   0.51330   Biso      1.000     O          -0.53442  
         O2        1.0000    0.71313   0.44550   0.34590   Biso      1.000     O          -0.575046           
         O3        1.0000    0.89993   0.35370   0.45360   Biso      1.000     O          -0.424405           
         O4        1.0000    0.96233   0.48670   0.35890   Biso      1.000     O          -0.533935           
         O5        1.0000    0.37980   0.65410   0.09960   Biso      1.000     O          -0.575672           
         O6        1.0000    0.56660   0.54640   0.90010   Biso      1.000     O          -0.424444           
         O7        1.0000    0.62900   0.64110   0.12780   Biso      1.000     O          -0.534261           
         O8        1.0000    0.04647   0.09960   0.44550   Biso      1.000     O          -0.575575           
         O9        1.0000    0.89993   0.64630   0.54640   Biso      1.000     O          -0.424394           
         O10       1.0000    0.29567   0.12780   0.48670   Biso      1.000     O          -0.534444           
         O11       1.0000    0.71313   0.55450   0.65410   Biso      1.000     O          -0.575071           
         O12       1.0000    0.96233   0.51330   0.64110   Biso      1.000     O          -0.533958           
         O13       1.0000    0.37980   0.34590   0.90040   Biso      1.000     O          -0.575708           
         O14       1.0000    0.56660   0.45360   0.09990   Biso      1.000     O          -0.42444  
         O15       1.0000    0.62900   0.35890   0.87220   Biso      1.000     O          -0.534294           
         O16       1.0000    0.23327   0.09990   0.64630   Biso      1.000     O          -0.424765           
         O17       1.0000    0.23327   0.90010   0.35370   Biso      1.000     O          -0.42475  
         O18       1.0000    0.04647   0.90040   0.55450   Biso      1.000     O          -0.575553 