
##########################################################################
#               Crystallographic Information Format file
#               Produced by PyCifRW module
#
#  This is a CIF file.  CIF has been adopted by the International
#  Union of Crystallography as the standard for data archiving and
#  transmission.
#
#  For information on this file format, follow the CIF links at
#  http://www.iucr.org
##########################################################################

data_image0

_cell_length_a                          6.7951
_cell_length_b                          13.113
_cell_length_c                          16.2989
_cell_angle_alpha                       113.72
_cell_angle_beta                        100.584
_cell_angle_gamma                       90
_symmetry_space_group_name_H-M          'P 1'
_symmetry_int_tables_number             1
loop_
  _symmetry_equiv_pos_as_xyz
         'x, y, z' 
loop_
  _atom_site_label
  _atom_site_occupancy
  _atom_site_fract_x
  _atom_site_fract_y
  _atom_site_fract_z
  _atom_site_thermal_displace_type
  _atom_site_B_iso_or_equiv
  _atom_site_type_symbol
  _atom_site_charge
         C1        1.0000    0.58260   0.65870   0.42440   Biso      1.000     C          -0.141478           
         C2        1.0000    0.61100   0.77470   0.45320   Biso      1.000     C          0.304976  
         C3        1.0000    0.65200   0.61140   0.48720   Biso      1.000     C          -0.23494299999999999          
         C4        1.0000    0.74080   0.67840   0.57620   Biso      1.000     C          0.3177    
         C5        1.0000    0.76720   0.79610   0.60620   Biso      1.000     C          -0.12516300000000002          
         C6        1.0000    0.48710   0.29150   0.02160   Biso      1.000     C          0.670816  
         C7        1.0000    0.58530   0.49450   0.08140   Biso      1.000     C          -0.212802           
         C8        1.0000    0.40890   0.40270   0.92420   Biso      1.000     C          0.33256199999999997           
         C9        1.0000    0.49760   0.39650   0.00740   Biso      1.000     C          -0.136802           
         C10       1.0000    0.97720   0.74610   0.33020   Biso      1.000     C          0.6166470000000001  
         C11       1.0000    0.36720   0.82850   0.70200   Biso      1.000     C          0.674012  
         C12       1.0000    0.11100   0.67850   0.45320   Biso      1.000     C          0.303541  
         C13       1.0000    0.08260   0.76570   0.42440   Biso      1.000     C          -0.140711           
         C14       1.0000    0.15200   0.87580   0.48720   Biso      1.000     C          -0.23458099999999998          
         C15       1.0000    0.24080   0.89780   0.57620   Biso      1.000     C          0.316859  
         C16       1.0000    0.26720   0.81010   0.60620   Biso      1.000     C          -0.12620499999999998          
         C17       1.0000    0.70220   0.84160   0.54320   Biso      1.000     C          -0.21415399999999998          
         C18       1.0000    0.01290   0.26990   0.97840   Biso      1.000     C          0.669538  
         C19       1.0000    0.86720   0.87350   0.70200   Biso      1.000     C          0.673918  
         C20       1.0000    0.99760   0.61090   0.00740   Biso      1.000     C          -0.136251           
         C21       1.0000    0.51290   0.70850   0.97840   Biso      1.000     C          0.670816  
         C22       1.0000    0.41470   0.50550   0.91860   Biso      1.000     C          -0.212802           
         C23       1.0000    0.59110   0.59730   0.07580   Biso      1.000     C          0.332563  
         C24       1.0000    0.50240   0.60350   0.99260   Biso      1.000     C          -0.136803           
         C25       1.0000    0.02280   0.25390   0.66980   Biso      1.000     C          0.6166470000000001  
         C26       1.0000    0.63280   0.17150   0.29800   Biso      1.000     C          0.674012  
         C27       1.0000    0.79780   0.29840   0.45680   Biso      1.000     C          -0.21129299999999998          
         C28       1.0000    0.88900   0.32150   0.54680   Biso      1.000     C          0.303541  
         C29       1.0000    0.91740   0.23430   0.57560   Biso      1.000     C          -0.140711           
         C30       1.0000    0.84800   0.12420   0.51280   Biso      1.000     C          -0.23458099999999998          
         C31       1.0000    0.75920   0.10220   0.42380   Biso      1.000     C          0.316859  
         C32       1.0000    0.73280   0.18990   0.39380   Biso      1.000     C          -0.12620399999999998          
         C33       1.0000    0.98710   0.73010   0.02160   Biso      1.000     C          0.669538  
         C34       1.0000    0.08530   0.58690   0.08140   Biso      1.000     C          -0.213381           
         C35       1.0000    0.90890   0.52150   0.92420   Biso      1.000     C          0.33402800000000005           
         C36       1.0000    0.47720   0.58410   0.33020   Biso      1.000     C          0.617279  
         C37       1.0000    0.91470   0.41310   0.91860   Biso      1.000     C          -0.213381           
         C38       1.0000    0.20220   0.70160   0.54320   Biso      1.000     C          -0.21129299999999998          
         C39       1.0000    0.00240   0.38910   0.99260   Biso      1.000     C          -0.136251           
         C40       1.0000    0.52280   0.41590   0.66980   Biso      1.000     C          0.617279  
         C41       1.0000    0.13280   0.12650   0.29800   Biso      1.000     C          0.673917  
         C42       1.0000    0.29780   0.15840   0.45680   Biso      1.000     C          -0.21415399999999998          
         C43       1.0000    0.38900   0.22530   0.54680   Biso      1.000     C          0.304976  
         C44       1.0000    0.41740   0.34130   0.57560   Biso      1.000     C          -0.141478           
         C45       1.0000    0.34800   0.38860   0.51280   Biso      1.000     C          -0.23494299999999999          
         C46       1.0000    0.25920   0.32160   0.42380   Biso      1.000     C          0.3177    
         C47       1.0000    0.23280   0.20390   0.39380   Biso      1.000     C          -0.12516300000000002          
         C48       1.0000    0.09110   0.47850   0.07580   Biso      1.000     C          0.33402800000000005           
         H1        1.0000    0.22010   0.64310   0.56160   Biso      1.000     H          0.149325  
         H2        1.0000    0.13770   0.93390   0.46820   Biso      1.000     H          0.145283  
         H3        1.0000    0.99550   0.56650   0.34580   Biso      1.000     H          0.401845  
         H4        1.0000    0.30920   0.04590   0.61160   Biso      1.000     H          0.407654  
         H5        1.0000    0.50450   0.22070   0.65420   Biso      1.000     H          0.402054  
         H6        1.0000    0.27990   0.08150   0.43840   Biso      1.000     H          0.150731  
         H7        1.0000    0.36230   0.46570   0.53180   Biso      1.000     H          0.145797  
         H8        1.0000    0.24980   0.51890   0.18760   Biso      1.000     H          0.404578  
         H9        1.0000    0.64180   0.49080   0.13660   Biso      1.000     H          0.153079  
         H10       1.0000    0.19080   0.43430   0.38840   Biso      1.000     H          0.40923699999999996           
         H11       1.0000    0.85820   0.35420   0.86340   Biso      1.000     H          0.152818  
         H12       1.0000    0.80920   0.56570   0.61160   Biso      1.000     H          0.40923699999999996           
         H13       1.0000    0.25020   0.33130   0.81240   Biso      1.000     H          0.404647  
         H14       1.0000    0.75020   0.48110   0.81240   Biso      1.000     H          0.404578  
         H15       1.0000    0.49550   0.77930   0.34580   Biso      1.000     H          0.402054  
         H16       1.0000    0.35820   0.50920   0.86340   Biso      1.000     H          0.153079  
         H17       1.0000    0.86230   0.06610   0.53180   Biso      1.000     H          0.145283  
         H18       1.0000    0.74980   0.66870   0.18760   Biso      1.000     H          0.404648  
         H19       1.0000    0.00450   0.43350   0.65420   Biso      1.000     H          0.401845  
         H20       1.0000    0.77990   0.35690   0.43840   Biso      1.000     H          0.149325  
         H21       1.0000    0.14180   0.64580   0.13660   Biso      1.000     H          0.152818  
         H22       1.0000    0.72010   0.91850   0.56160   Biso      1.000     H          0.150731  
         H23       1.0000    0.63770   0.53430   0.46820   Biso      1.000     H          0.145797  
         H24       1.0000    0.69080   0.95410   0.38840   Biso      1.000     H          0.407654  
         O1        1.0000    0.31310   0.31162   0.85084   Biso      1.000     O          -0.632955           
         O2        1.0000    0.55340   0.82573   0.39566   Biso      1.000     O          -0.510085           
         O3        1.0000    0.88230   0.84050   0.76540   Biso      1.000     O          -0.699137           
         O4        1.0000    0.93270   0.96994   0.71428   Biso      1.000     O          -0.658552           
         O5        1.0000    0.40200   0.63023   0.27746   Biso      1.000     O          -0.569729           
         O6        1.0000    0.46310   0.47994   0.30648   Biso      1.000     O          -0.677326           
         O7        1.0000    0.80970   0.63374   0.63848   Biso      1.000     O          -0.6063810000000001           
         O8        1.0000    0.93870   0.75667   0.95514   Biso      1.000     O          -0.683316           
         O9        1.0000    0.56130   0.80153   0.04486   Biso      1.000     O          -0.684195           
         O10       1.0000    0.81310   0.53922   0.85084   Biso      1.000     O          -0.633638           
         O11       1.0000    0.61770   0.07510   0.23460   Biso      1.000     O          -0.698692           
         O12       1.0000    0.56730   0.25566   0.28572   Biso      1.000     O          -0.658802           
         O13       1.0000    0.09800   0.35277   0.72254   Biso      1.000     O          -0.569547           
         O14       1.0000    0.94660   0.43007   0.60434   Biso      1.000     O          -0.509299           
         O15       1.0000    0.69030   0.99526   0.36152   Biso      1.000     O          -0.603934           
         O16       1.0000    0.52680   0.30101   0.10442   Biso      1.000     O          -0.678929           
         O17       1.0000    0.03690   0.17346   0.69352   Biso      1.000     O          -0.677138           
         O18       1.0000    0.02680   0.80341   0.10442   Biso      1.000     O          -0.678905           
         O19       1.0000    0.43870   0.19847   0.95514   Biso      1.000     O          -0.684195           
         O20       1.0000    0.68690   0.68838   0.14916   Biso      1.000     O          -0.6329560000000001           
         O21       1.0000    0.30970   0.00474   0.63848   Biso      1.000     O          -0.603934           
         O22       1.0000    0.47320   0.69899   0.89558   Biso      1.000     O          -0.678929           
         O23       1.0000    0.11770   0.15950   0.23460   Biso      1.000     O          -0.699137           
         O24       1.0000    0.06730   0.03006   0.28572   Biso      1.000     O          -0.658552           
         O25       1.0000    0.59800   0.36977   0.72254   Biso      1.000     O          -0.569729           
         O26       1.0000    0.53690   0.52006   0.69352   Biso      1.000     O          -0.677326           
         O27       1.0000    0.05340   0.56993   0.39566   Biso      1.000     O          -0.509299           
         O28       1.0000    0.44660   0.17427   0.60434   Biso      1.000     O          -0.510085           
         O29       1.0000    0.19030   0.36626   0.36152   Biso      1.000     O          -0.6063810000000001           
         O30       1.0000    0.97320   0.19659   0.89558   Biso      1.000     O          -0.678905           
         O31       1.0000    0.18690   0.46078   0.14916   Biso      1.000     O          -0.633638           
         O32       1.0000    0.38230   0.92490   0.76540   Biso      1.000     O          -0.698692           
         O33       1.0000    0.43270   0.74434   0.71428   Biso      1.000     O          -0.658802           
         O34       1.0000    0.90200   0.64723   0.27746   Biso      1.000     O          -0.569547           
         O35       1.0000    0.96310   0.82654   0.30648   Biso      1.000     O          -0.677138           
         O36       1.0000    0.06130   0.24333   0.04486   Biso      1.000     O          -0.683316           
         Pr1       1.0000    0.77205   0.89558   0.19654   Biso      1.000     Pr          2.199604  
         Pr2       1.0000    0.72795   0.69904   0.80346   Biso      1.000     Pr          2.199793  
         Pr3       1.0000    0.22795   0.10442   0.80346   Biso      1.000     Pr          2.199604  
         Pr4       1.0000    0.27205   0.30096   0.19654   Biso      1.000     Pr          2.199793 