
##########################################################################
#               Crystallographic Information Format file
#               Produced by PyCifRW module
#
#  This is a CIF file.  CIF has been adopted by the International
#  Union of Crystallography as the standard for data archiving and
#  transmission.
#
#  For information on this file format, follow the CIF links at
#  http://www.iucr.org
##########################################################################

data_image0

_cell_length_a                          6.8105
_cell_length_b                          13.19
_cell_length_c                          16.3808
_cell_angle_alpha                       113.741
_cell_angle_beta                        100.532
_cell_angle_gamma                       90
_symmetry_space_group_name_H-M          'P 1'
_symmetry_int_tables_number             1
loop_
  _symmetry_equiv_pos_as_xyz
         'x, y, z' 
loop_
  _atom_site_label
  _atom_site_occupancy
  _atom_site_fract_x
  _atom_site_fract_y
  _atom_site_fract_z
  _atom_site_thermal_displace_type
  _atom_site_B_iso_or_equiv
  _atom_site_type_symbol
  _atom_site_charge
         C1        1.0000    0.58210   0.65956   0.42392   Biso      1.000     C          -0.137389           
         C2        1.0000    0.48790   0.29292   0.02184   Biso      1.000     C          0.652714  
         C3        1.0000    0.58460   0.49347   0.08054   Biso      1.000     C          -0.218831           
         C4        1.0000    0.41020   0.40398   0.92476   Biso      1.000     C          0.32705100000000004           
         C5        1.0000    0.49680   0.39700   0.00740   Biso      1.000     C          -0.135855           
         C6        1.0000    0.97500   0.74438   0.32976   Biso      1.000     C          0.611607  
         C7        1.0000    0.36410   0.82668   0.69996   Biso      1.000     C          0.656935  
         C8        1.0000    0.76670   0.79582   0.60464   Biso      1.000     C          -0.127986           
         C9        1.0000    0.20050   0.70103   0.54206   Biso      1.000     C          -0.212481           
         C10       1.0000    0.08210   0.76436   0.42392   Biso      1.000     C          -0.13606300000000002          
         C11       1.0000    0.15120   0.87276   0.48652   Biso      1.000     C          -0.236312           
         C12       1.0000    0.24100   0.89545   0.57510   Biso      1.000     C          0.31095900000000004           
         C13       1.0000    0.26670   0.80882   0.60464   Biso      1.000     C          -0.129192           
         C14       1.0000    0.01210   0.27108   0.97816   Biso      1.000     C          0.6523760000000001  
         C15       1.0000    0.91540   0.41293   0.91946   Biso      1.000     C          -0.219504           
         C16       1.0000    0.11010   0.67819   0.45258   Biso      1.000     C          0.302112  
         C17       1.0000    0.08980   0.47922   0.07524   Biso      1.000     C          0.326677  
         C18       1.0000    0.74100   0.67965   0.57510   Biso      1.000     C          0.31099899999999997           
         C19       1.0000    0.50320   0.60300   0.99260   Biso      1.000     C          -0.135856           
         C20       1.0000    0.79950   0.29897   0.45794   Biso      1.000     C          -0.212481           
         C21       1.0000    0.88990   0.32181   0.54742   Biso      1.000     C          0.302112  
         C22       1.0000    0.91790   0.23564   0.57608   Biso      1.000     C          -0.13606300000000002          
         C23       1.0000    0.84880   0.12724   0.51348   Biso      1.000     C          -0.236312           
         C24       1.0000    0.75900   0.10455   0.42490   Biso      1.000     C          0.310958  
         C25       1.0000    0.73330   0.19118   0.39536   Biso      1.000     C          -0.129192           
         C26       1.0000    0.65120   0.61376   0.48652   Biso      1.000     C          -0.235776           
         C27       1.0000    0.98790   0.72892   0.02184   Biso      1.000     C          0.6523770000000001  
         C28       1.0000    0.91020   0.52078   0.92476   Biso      1.000     C          0.326676  
         C29       1.0000    0.99680   0.61040   0.00740   Biso      1.000     C          -0.134657           
         C30       1.0000    0.47500   0.58538   0.32976   Biso      1.000     C          0.611641  
         C31       1.0000    0.86410   0.87328   0.69996   Biso      1.000     C          0.654798  
         C32       1.0000    0.70050   0.84103   0.54206   Biso      1.000     C          -0.21330300000000002          
         C33       1.0000    0.61010   0.77439   0.45258   Biso      1.000     C          0.302616  
         C34       1.0000    0.08460   0.58707   0.08054   Biso      1.000     C          -0.21950300000000003          
         C35       1.0000    0.00320   0.38960   0.99260   Biso      1.000     C          -0.134656           
         C36       1.0000    0.52500   0.41462   0.67024   Biso      1.000     C          0.611641  
         C37       1.0000    0.13590   0.12672   0.30004   Biso      1.000     C          0.654798  
         C38       1.0000    0.51210   0.70708   0.97816   Biso      1.000     C          0.652714  
         C39       1.0000    0.41540   0.50653   0.91946   Biso      1.000     C          -0.21883000000000002          
         C40       1.0000    0.58980   0.59602   0.07524   Biso      1.000     C          0.32705100000000004           
         C41       1.0000    0.63590   0.17332   0.30004   Biso      1.000     C          0.656935  
         C42       1.0000    0.23330   0.20418   0.39536   Biso      1.000     C          -0.127986           
         C43       1.0000    0.02500   0.25562   0.67024   Biso      1.000     C          0.611607  
         C44       1.0000    0.29950   0.15897   0.45794   Biso      1.000     C          -0.21330300000000002          
         C45       1.0000    0.38990   0.22561   0.54742   Biso      1.000     C          0.302616  
         C46       1.0000    0.41790   0.34044   0.57608   Biso      1.000     C          -0.137388           
         C47       1.0000    0.34880   0.38624   0.51348   Biso      1.000     C          -0.235779           
         C48       1.0000    0.25900   0.32035   0.42490   Biso      1.000     C          0.311001  
         H1        1.0000    0.35790   0.51050   0.86500   Biso      1.000     H          0.152598  
         H2        1.0000    0.19070   0.43370   0.39140   Biso      1.000     H          0.407138  
         H3        1.0000    0.50530   0.21940   0.65440   Biso      1.000     H          0.400016  
         H4        1.0000    0.24670   0.51970   0.18680   Biso      1.000     H          0.401438  
         H5        1.0000    0.36390   0.46290   0.53220   Biso      1.000     H          0.14283099999999999           
         H6        1.0000    0.28290   0.08250   0.43960   Biso      1.000     H          0.148338  
         H7        1.0000    0.85790   0.35450   0.86500   Biso      1.000     H          0.152501  
         H8        1.0000    0.30930   0.04230   0.60860   Biso      1.000     H          0.406003  
         H9        1.0000    0.99470   0.56500   0.34560   Biso      1.000     H          0.401277  
         H10       1.0000    0.25330   0.33290   0.81320   Biso      1.000     H          0.402898  
         H11       1.0000    0.13610   0.93070   0.46780   Biso      1.000     H          0.142645  
         H12       1.0000    0.64210   0.48950   0.13500   Biso      1.000     H          0.152598  
         H13       1.0000    0.80930   0.56630   0.60860   Biso      1.000     H          0.407138  
         H14       1.0000    0.75330   0.48030   0.81320   Biso      1.000     H          0.401437  
         H15       1.0000    0.63610   0.53710   0.46780   Biso      1.000     H          0.14283099999999999           
         H16       1.0000    0.71710   0.91750   0.56040   Biso      1.000     H          0.148338  
         H17       1.0000    0.14210   0.64550   0.13500   Biso      1.000     H          0.152501  
         H18       1.0000    0.69070   0.95770   0.39140   Biso      1.000     H          0.406003  
         H19       1.0000    0.00530   0.43500   0.65440   Biso      1.000     H          0.401277  
         H20       1.0000    0.74670   0.66710   0.18680   Biso      1.000     H          0.402898  
         H21       1.0000    0.86390   0.06930   0.53220   Biso      1.000     H          0.142645  
         H22       1.0000    0.78290   0.35710   0.43960   Biso      1.000     H          0.148065  
         H23       1.0000    0.21710   0.64290   0.56040   Biso      1.000     H          0.148065  
         H24       1.0000    0.49470   0.78060   0.34560   Biso      1.000     H          0.400016  
         La1       1.0000    0.27209   0.30203   0.19760   Biso      1.000     La          2.005375  
         La2       1.0000    0.77209   0.89557   0.19760   Biso      1.000     La          2.005227  
         La3       1.0000    0.72791   0.69797   0.80240   Biso      1.000     La          2.005375  
         La4       1.0000    0.22791   0.10443   0.80240   Biso      1.000     La          2.005226  
         O1        1.0000    0.92670   0.96945   0.71260   Biso      1.000     O          -0.6205109999999999           
         O2        1.0000    0.40010   0.63164   0.27788   Biso      1.000     O          -0.570764           
         O3        1.0000    0.46170   0.48241   0.30724   Biso      1.000     O          -0.641868           
         O4        1.0000    0.81050   0.63392   0.63598   Biso      1.000     O          -0.573543           
         O5        1.0000    0.55250   0.82646   0.39550   Biso      1.000     O          -0.5136970000000001           
         O6        1.0000    0.94070   0.75501   0.95512   Biso      1.000     O          -0.642947           
         O7        1.0000    0.02790   0.80134   0.10374   Biso      1.000     O          -0.634062           
         O8        1.0000    0.62010   0.07721   0.23710   Biso      1.000     O          -0.656031           
         O9        1.0000    0.87990   0.84011   0.76290   Biso      1.000     O          -0.655474           
         O10       1.0000    0.57330   0.25685   0.28740   Biso      1.000     O          -0.6216149999999999           
         O11       1.0000    0.09990   0.35376   0.72212   Biso      1.000     O          -0.57089  
         O12       1.0000    0.03830   0.17517   0.69276   Biso      1.000     O          -0.642292           
         O13       1.0000    0.68950   0.99794   0.36402   Biso      1.000     O          -0.5718840000000001           
         O14       1.0000    0.94750   0.43096   0.60450   Biso      1.000     O          -0.514849           
         O15       1.0000    0.55930   0.79989   0.04488   Biso      1.000     O          -0.643181           
         O16       1.0000    0.81580   0.53810   0.85124   Biso      1.000     O          -0.595082           
         O17       1.0000    0.31580   0.31314   0.85124   Biso      1.000     O          -0.596935           
         O18       1.0000    0.52790   0.30240   0.10374   Biso      1.000     O          -0.6338590000000001           
         O19       1.0000    0.44070   0.20011   0.95512   Biso      1.000     O          -0.643181           
         O20       1.0000    0.12010   0.15989   0.23710   Biso      1.000     O          -0.655474           
         O21       1.0000    0.07330   0.03055   0.28740   Biso      1.000     O          -0.6205109999999999           
         O22       1.0000    0.59990   0.36836   0.72212   Biso      1.000     O          -0.570764           
         O23       1.0000    0.53830   0.51759   0.69276   Biso      1.000     O          -0.641868           
         O24       1.0000    0.18950   0.36608   0.36402   Biso      1.000     O          -0.573543           
         O25       1.0000    0.44750   0.17354   0.60450   Biso      1.000     O          -0.513698           
         O26       1.0000    0.05930   0.24499   0.04488   Biso      1.000     O          -0.642947           
         O27       1.0000    0.97210   0.19866   0.89626   Biso      1.000     O          -0.634062           
         O28       1.0000    0.18420   0.46190   0.14876   Biso      1.000     O          -0.595083           
         O29       1.0000    0.37990   0.92279   0.76290   Biso      1.000     O          -0.656031           
         O30       1.0000    0.42670   0.74315   0.71260   Biso      1.000     O          -0.6216149999999999           
         O31       1.0000    0.90010   0.64624   0.27788   Biso      1.000     O          -0.57089  
         O32       1.0000    0.96170   0.82483   0.30724   Biso      1.000     O          -0.642292           
         O33       1.0000    0.31050   0.00206   0.63598   Biso      1.000     O          -0.5718850000000001           
         O34       1.0000    0.05250   0.56904   0.39550   Biso      1.000     O          -0.514849           
         O35       1.0000    0.47210   0.69760   0.89626   Biso      1.000     O          -0.6338590000000001           
         O36       1.0000    0.68420   0.68686   0.14876   Biso      1.000     O          -0.596935 