
##########################################################################
#               Crystallographic Information Format file
#               Produced by PyCifRW module
#
#  This is a CIF file.  CIF has been adopted by the International
#  Union of Crystallography as the standard for data archiving and
#  transmission.
#
#  For information on this file format, follow the CIF links at
#  http://www.iucr.org
##########################################################################

data_image0

_cell_length_a                          7.3494
_cell_length_b                          11.475
_cell_length_c                          16.1852
_cell_angle_alpha                       78.799
_cell_angle_beta                        82.483
_cell_angle_gamma                       79.955
_symmetry_space_group_name_H-M          'P 1'
_symmetry_int_tables_number             1
loop_
  _symmetry_equiv_pos_as_xyz
         'x, y, z' 
loop_
  _atom_site_label
  _atom_site_occupancy
  _atom_site_fract_x
  _atom_site_fract_y
  _atom_site_fract_z
  _atom_site_thermal_displace_type
  _atom_site_B_iso_or_equiv
  _atom_site_type_symbol
  _atom_site_charge
         C1        1.0000    0.73960   0.53380   0.03830   Biso      1.000     C          -0.13149  
         C2        1.0000    0.20600   0.60740   0.08730   Biso      1.000     C          -0.152503           
         C3        1.0000    0.12970   0.65110   0.01000   Biso      1.000     C          0.307633  
         C4        1.0000    0.16530   0.58260   0.94630   Biso      1.000     C          -0.20527399999999998          
         C5        1.0000    0.26040   0.46620   0.96170   Biso      1.000     C          -0.131495           
         C6        1.0000    0.32310   0.41850   0.04050   Biso      1.000     C          0.309337  
         C7        1.0000    0.30110   0.48940   0.10190   Biso      1.000     C          -0.20691500000000002          
         C8        1.0000    0.19210   0.68580   0.15200   Biso      1.000     C          0.681566  
         C9        1.0000    0.61320   0.98290   0.06470   Biso      1.000     C          -0.102774           
         C10       1.0000    0.29860   0.39520   0.89210   Biso      1.000     C          0.60347   
         C11       1.0000    0.96710   0.59380   0.43100   Biso      1.000     C          -0.147947           
         C12       1.0000    0.86940   0.49700   0.44640   Biso      1.000     C          -0.206331           
         C13       1.0000    0.92850   0.69160   0.35700   Biso      1.000     C          0.69948   
         C14       1.0000    0.35020   0.07590   0.46400   Biso      1.000     C          0.303687  
         C15       1.0000    0.56850   0.89270   0.47200   Biso      1.000     C          -0.206754           
         C16       1.0000    0.41790   0.96810   0.43610   Biso      1.000     C          -0.15418900000000002          
         C17       1.0000    0.33740   0.93060   0.36630   Biso      1.000     C          0.685987  
         C18       1.0000    0.09870   0.59590   0.48580   Biso      1.000     C          0.31414200000000003           
         C19       1.0000    0.74790   0.96510   0.12850   Biso      1.000     C          0.656101  
         C20       1.0000    0.79400   0.39260   0.91270   Biso      1.000     C          -0.15250999999999998          
         C21       1.0000    0.87030   0.34890   0.99000   Biso      1.000     C          0.307633  
         C22       1.0000    0.25210   0.03490   0.87150   Biso      1.000     C          0.6561020000000001  
         C23       1.0000    0.38680   0.01710   0.93530   Biso      1.000     C          -0.10276600000000001          
         C24       1.0000    0.56710   0.04720   0.91460   Biso      1.000     C          0.344085  
         C25       1.0000    0.32310   0.97210   0.01840   Biso      1.000     C          -0.21545599999999998          
         C26       1.0000    0.66260   0.06940   0.63370   Biso      1.000     C          0.685988  
         C27       1.0000    0.58210   0.03190   0.56390   Biso      1.000     C          -0.154187           
         C28       1.0000    0.43150   0.10730   0.52800   Biso      1.000     C          -0.206749           
         C29       1.0000    0.64980   0.92410   0.53600   Biso      1.000     C          0.303689  
         C30       1.0000    0.07150   0.30840   0.64300   Biso      1.000     C          0.699473  
         C31       1.0000    0.13060   0.50300   0.55360   Biso      1.000     C          -0.20633400000000002          
         C32       1.0000    0.03290   0.40620   0.56900   Biso      1.000     C          -0.147948           
         C33       1.0000    0.90130   0.40410   0.51420   Biso      1.000     C          0.314141  
         C34       1.0000    0.70140   0.60480   0.10790   Biso      1.000     C          0.603472  
         C35       1.0000    0.80790   0.31420   0.84800   Biso      1.000     C          0.681566  
         C36       1.0000    0.69890   0.51060   0.89810   Biso      1.000     C          -0.20692199999999997          
         C37       1.0000    0.67690   0.58150   0.95950   Biso      1.000     C          0.30934   
         C38       1.0000    0.83470   0.41740   0.05370   Biso      1.000     C          -0.20527399999999998          
         C39       1.0000    0.67690   0.02790   0.98160   Biso      1.000     C          -0.21545300000000003          
         C40       1.0000    0.43290   0.95280   0.08540   Biso      1.000     C          0.344087  
         Dy1       1.0000    0.05846   0.93402   0.22637   Biso      1.000     Dy          2.065189  
         Dy2       1.0000    0.55571   0.73545   0.23603   Biso      1.000     Dy          2.115933  
         Dy3       1.0000    0.94154   0.06598   0.77363   Biso      1.000     Dy          2.065191  
         Dy4       1.0000    0.44429   0.26456   0.76397   Biso      1.000     Dy          2.115908  
         H1        1.0000    0.38510   0.17930   0.54700   Biso      1.000     H          0.149203  
         H2        1.0000    0.20270   0.95410   0.02970   Biso      1.000     H          0.133267  
         H3        1.0000    0.42900   0.26940   0.02010   Biso      1.000     H          0.396303  
         H4        1.0000    0.15370   0.74440   0.44060   Biso      1.000     H          0.39914499999999997           
         H5        1.0000    0.15120   0.12340   0.40320   Biso      1.000     H          0.400419  
         H6        1.0000    0.12540   0.61470   0.89320   Biso      1.000     H          0.149384  
         H7        1.0000    0.34980   0.45880   0.15330   Biso      1.000     H          0.153186  
         H8        1.0000    0.78130   0.49460   0.41070   Biso      1.000     H          0.146231  
         H9        1.0000    0.00530   0.79290   0.03300   Biso      1.000     H          0.397081  
         H10       1.0000    0.79730   0.04590   0.97030   Biso      1.000     H          0.133267  
         H11       1.0000    0.99470   0.20710   0.96700   Biso      1.000     H          0.397081  
         H12       1.0000    0.57100   0.73060   0.97990   Biso      1.000     H          0.396303  
         H13       1.0000    0.84630   0.25560   0.55940   Biso      1.000     H          0.399146  
         H14       1.0000    0.84880   0.87660   0.59680   Biso      1.000     H          0.400419  
         H15       1.0000    0.87460   0.38530   0.10680   Biso      1.000     H          0.149385  
         H16       1.0000    0.65020   0.54120   0.84670   Biso      1.000     H          0.153184  
         H17       1.0000    0.61490   0.82070   0.45300   Biso      1.000     H          0.149203  
         H18       1.0000    0.21870   0.50540   0.58930   Biso      1.000     H          0.146229  
         O1        1.0000    0.69790   0.34370   0.79062   Biso      1.000     O          -0.713314           
         O2        1.0000    0.73290   0.55750   0.18250   Biso      1.000     O          -0.6366649999999999           
         O3        1.0000    0.62770   0.71440   0.09140   Biso      1.000     O          -0.671292           
         O4        1.0000    0.98190   0.24180   0.00760   Biso      1.000     O          -0.49371000000000004          
         O5        1.0000    0.58120   0.69620   0.93920   Biso      1.000     O          -0.520632           
         O6        1.0000    0.97870   0.22130   0.65659   Biso      1.000     O          -0.717989           
         O7        1.0000    0.58900   0.16640   0.65790   Biso      1.000     O          -0.7060350000000001           
         O8        1.0000    0.79770   0.31320   0.52690   Biso      1.000     O          -0.5141399999999999           
         O9        1.0000    0.80290   0.00420   0.66400   Biso      1.000     O          -0.6886939999999999           
         O10       1.0000    0.79690   0.84470   0.56730   Biso      1.000     O          -0.496683           
         O11       1.0000    0.27120   0.10650   0.80107   Biso      1.000     O          -0.744341           
         O12       1.0000    0.92580   0.21970   0.85450   Biso      1.000     O          -0.65861  
         O13       1.0000    0.19110   0.31750   0.68740   Biso      1.000     O          -0.674113           
         O14       1.0000    0.36650   0.90610   0.16515   Biso      1.000     O          -0.81921  
         O15       1.0000    0.01810   0.75820   0.99240   Biso      1.000     O          -0.493709           
         O16       1.0000    0.72880   0.89350   0.19893   Biso      1.000     O          -0.744337           
         O17       1.0000    0.20310   0.15530   0.43270   Biso      1.000     O          -0.49668100000000004          
         O18       1.0000    0.19710   0.99580   0.33600   Biso      1.000     O          -0.688692           
         O19       1.0000    0.41100   0.83360   0.34210   Biso      1.000     O          -0.706037           
         O20       1.0000    0.20230   0.68680   0.47310   Biso      1.000     O          -0.514139           
         O21       1.0000    0.80890   0.68250   0.31260   Biso      1.000     O          -0.674128           
         O22       1.0000    0.02130   0.77870   0.34341   Biso      1.000     O          -0.717993           
         O23       1.0000    0.41880   0.30380   0.06080   Biso      1.000     O          -0.52063  
         O24       1.0000    0.37230   0.28560   0.90860   Biso      1.000     O          -0.671289           
         O25       1.0000    0.26710   0.44250   0.81750   Biso      1.000     O          -0.636656           
         O26       1.0000    0.30210   0.65630   0.20938   Biso      1.000     O          -0.7133149999999999           
         O27       1.0000    0.07420   0.78030   0.14550   Biso      1.000     O          -0.658616           
         O28       1.0000    0.11320   0.98120   0.88824   Biso      1.000     O          -0.625762           
         O29       1.0000    0.88680   0.01880   0.11176   Biso      1.000     O          -0.625757           
         O30       1.0000    0.63350   0.09390   0.83485   Biso      1.000     O          -0.819198 