
##########################################################################
#               Crystallographic Information Format file
#               Produced by PyCifRW module
#
#  This is a CIF file.  CIF has been adopted by the International
#  Union of Crystallography as the standard for data archiving and
#  transmission.
#
#  For information on this file format, follow the CIF links at
#  http://www.iucr.org
##########################################################################

data_image0

_cell_length_a                          7.3991
_cell_length_b                          11.473
_cell_length_c                          16.2335
_cell_angle_alpha                       79.038
_cell_angle_beta                        82.588
_cell_angle_gamma                       79.972
_symmetry_space_group_name_H-M          'P 1'
_symmetry_int_tables_number             1
loop_
  _symmetry_equiv_pos_as_xyz
         'x, y, z' 
loop_
  _atom_site_label
  _atom_site_occupancy
  _atom_site_fract_x
  _atom_site_fract_y
  _atom_site_fract_z
  _atom_site_thermal_displace_type
  _atom_site_B_iso_or_equiv
  _atom_site_type_symbol
  _atom_site_charge
         C1        1.0000    0.73810   0.53370   0.03780   Biso      1.000     C          -0.129073           
         C2        1.0000    0.20400   0.60770   0.08770   Biso      1.000     C          -0.151399           
         C3        1.0000    0.12880   0.64980   0.01090   Biso      1.000     C          0.307841  
         C4        1.0000    0.16460   0.58090   0.94750   Biso      1.000     C          -0.204418           
         C5        1.0000    0.26190   0.46630   0.96220   Biso      1.000     C          -0.129071           
         C6        1.0000    0.32650   0.41970   0.04110   Biso      1.000     C          0.307546  
         C7        1.0000    0.30200   0.49100   0.10240   Biso      1.000     C          -0.208068           
         C8        1.0000    0.18900   0.68670   0.15190   Biso      1.000     C          0.677823  
         C9        1.0000    0.61190   0.98410   0.06490   Biso      1.000     C          -0.105074           
         C10       1.0000    0.29910   0.39360   0.89310   Biso      1.000     C          0.594596  
         C11       1.0000    0.96580   0.59400   0.43350   Biso      1.000     C          -0.150016           
         C12       1.0000    0.86570   0.49900   0.44770   Biso      1.000     C          -0.204447           
         C13       1.0000    0.92590   0.69470   0.35960   Biso      1.000     C          0.694615  
         C14       1.0000    0.35020   0.07820   0.46660   Biso      1.000     C          0.30501   
         C15       1.0000    0.56410   0.89320   0.47100   Biso      1.000     C          -0.207502           
         C16       1.0000    0.41480   0.97010   0.43610   Biso      1.000     C          -0.158181           
         C17       1.0000    0.33070   0.93480   0.36700   Biso      1.000     C          0.683732  
         C18       1.0000    0.09950   0.59460   0.48530   Biso      1.000     C          0.313183  
         C19       1.0000    0.74540   0.96710   0.12750   Biso      1.000     C          0.65092   
         C20       1.0000    0.79600   0.39230   0.91230   Biso      1.000     C          -0.151398           
         C21       1.0000    0.87120   0.35020   0.98910   Biso      1.000     C          0.307841  
         C22       1.0000    0.25460   0.03290   0.87250   Biso      1.000     C          0.650919  
         C23       1.0000    0.38810   0.01590   0.93510   Biso      1.000     C          -0.105073           
         C24       1.0000    0.56760   0.04530   0.91460   Biso      1.000     C          0.345162  
         C25       1.0000    0.32400   0.97330   0.01780   Biso      1.000     C          -0.211994           
         C26       1.0000    0.66930   0.06520   0.63300   Biso      1.000     C          0.683731  
         C27       1.0000    0.58520   0.02990   0.56390   Biso      1.000     C          -0.158183           
         C28       1.0000    0.43590   0.10680   0.52900   Biso      1.000     C          -0.207497           
         C29       1.0000    0.64980   0.92180   0.53340   Biso      1.000     C          0.305014  
         C30       1.0000    0.07410   0.30530   0.64040   Biso      1.000     C          0.694615  
         C31       1.0000    0.13430   0.50100   0.55230   Biso      1.000     C          -0.204449           
         C32       1.0000    0.03420   0.40600   0.56650   Biso      1.000     C          -0.150016           
         C33       1.0000    0.90050   0.40540   0.51470   Biso      1.000     C          0.313182  
         C34       1.0000    0.70090   0.60640   0.10690   Biso      1.000     C          0.594596  
         C35       1.0000    0.81100   0.31330   0.84810   Biso      1.000     C          0.677823  
         C36       1.0000    0.69800   0.50900   0.89760   Biso      1.000     C          -0.208073           
         C37       1.0000    0.67350   0.58030   0.95890   Biso      1.000     C          0.307551  
         C38       1.0000    0.83540   0.41910   0.05250   Biso      1.000     C          -0.204418           
         C39       1.0000    0.67600   0.02670   0.98220   Biso      1.000     C          -0.211993           
         C40       1.0000    0.43240   0.95470   0.08540   Biso      1.000     C          0.345163  
         Gd1       1.0000    0.05583   0.93622   0.22734   Biso      1.000     Gd          2.044758  
         Gd2       1.0000    0.55330   0.73727   0.23645   Biso      1.000     Gd          2.089651  
         Gd3       1.0000    0.94417   0.06378   0.77266   Biso      1.000     Gd          2.044758  
         Gd4       1.0000    0.44670   0.26273   0.76355   Biso      1.000     Gd          2.089651  
         H1        1.0000    0.39340   0.17890   0.54820   Biso      1.000     H          0.147528  
         H2        1.0000    0.20390   0.95640   0.02890   Biso      1.000     H          0.132055  
         H3        1.0000    0.43410   0.27120   0.01990   Biso      1.000     H          0.397116  
         H4        1.0000    0.15810   0.74240   0.44020   Biso      1.000     H          0.397826  
         H5        1.0000    0.15320   0.12770   0.40600   Biso      1.000     H          0.401132  
         H6        1.0000    0.12290   0.61210   0.89500   Biso      1.000     H          0.150999  
         H7        1.0000    0.35080   0.46150   0.15370   Biso      1.000     H          0.153056  
         H8        1.0000    0.77620   0.49790   0.41260   Biso      1.000     H          0.147463  
         H9        1.0000    0.00230   0.79140   0.03390   Biso      1.000     H          0.394564  
         H10       1.0000    0.79610   0.04360   0.97110   Biso      1.000     H          0.132055  
         H11       1.0000    0.99770   0.20860   0.96610   Biso      1.000     H          0.394565  
         H12       1.0000    0.56590   0.72880   0.98010   Biso      1.000     H          0.397116  
         H13       1.0000    0.84190   0.25760   0.55980   Biso      1.000     H          0.397826  
         H14       1.0000    0.84680   0.87230   0.59400   Biso      1.000     H          0.401132  
         H15       1.0000    0.87710   0.38790   0.10500   Biso      1.000     H          0.150999  
         H16       1.0000    0.64920   0.53850   0.84630   Biso      1.000     H          0.153056  
         H17       1.0000    0.60660   0.82110   0.45180   Biso      1.000     H          0.147528  
         H18       1.0000    0.22380   0.50210   0.58740   Biso      1.000     H          0.147463  
         O1        1.0000    0.70460   0.34150   0.78990   Biso      1.000     O          -0.705703           
         O2        1.0000    0.73740   0.56150   0.18120   Biso      1.000     O          -0.628921           
         O3        1.0000    0.62080   0.71540   0.09050   Biso      1.000     O          -0.665876           
         O4        1.0000    0.98450   0.24360   0.00650   Biso      1.000     O          -0.493832           
         O5        1.0000    0.57600   0.69450   0.93940   Biso      1.000     O          -0.520215           
         O6        1.0000    0.98130   0.22020   0.65450   Biso      1.000     O          -0.697331           
         O7        1.0000    0.60170   0.16140   0.65790   Biso      1.000     O          -0.697513           
         O8        1.0000    0.79460   0.31550   0.52750   Biso      1.000     O          -0.518774           
         O9        1.0000    0.80800   0.99730   0.66240   Biso      1.000     O          -0.685612           
         O10       1.0000    0.79410   0.84130   0.56440   Biso      1.000     O          -0.496998           
         O11       1.0000    0.27160   0.10420   0.80100   Biso      1.000     O          -0.740659           
         O12       1.0000    0.92870   0.21870   0.85440   Biso      1.000     O          -0.657238           
         O13       1.0000    0.19720   0.31340   0.68360   Biso      1.000     O          -0.677798           
         O14       1.0000    0.36580   0.91050   0.16480   Biso      1.000     O          -0.803505           
         O15       1.0000    0.01550   0.75640   0.99350   Biso      1.000     O          -0.493832           
         O16       1.0000    0.72840   0.89580   0.19900   Biso      1.000     O          -0.74066  
         O17       1.0000    0.20590   0.15870   0.43560   Biso      1.000     O          -0.496998           
         O18       1.0000    0.19200   0.00270   0.33760   Biso      1.000     O          -0.685612           
         O19       1.0000    0.39830   0.83860   0.34210   Biso      1.000     O          -0.697513           
         O20       1.0000    0.20540   0.68450   0.47250   Biso      1.000     O          -0.518774           
         O21       1.0000    0.80280   0.68660   0.31640   Biso      1.000     O          -0.677798           
         O22       1.0000    0.01870   0.77980   0.34550   Biso      1.000     O          -0.697331           
         O23       1.0000    0.42400   0.30550   0.06060   Biso      1.000     O          -0.520215           
         O24       1.0000    0.37920   0.28460   0.90950   Biso      1.000     O          -0.665876           
         O25       1.0000    0.26260   0.43850   0.81880   Biso      1.000     O          -0.628921           
         O26       1.0000    0.29540   0.65850   0.21010   Biso      1.000     O          -0.705704           
         O27       1.0000    0.07130   0.78130   0.14560   Biso      1.000     O          -0.657238           
         O28       1.0000    0.11600   0.97890   0.88870   Biso      1.000     O          -0.616431           
         O29       1.0000    0.88400   0.02110   0.11130   Biso      1.000     O          -0.616432           
         O30       1.0000    0.63420   0.08950   0.83520   Biso      1.000     O          -0.803505 