
##########################################################################
#               Crystallographic Information Format file
#               Produced by PyCifRW module
#
#  This is a CIF file.  CIF has been adopted by the International
#  Union of Crystallography as the standard for data archiving and
#  transmission.
#
#  For information on this file format, follow the CIF links at
#  http://www.iucr.org
##########################################################################

data_image0

_cell_length_a                          11.0282
_cell_length_b                          11.0282
_cell_length_c                          18.9717
_cell_angle_alpha                       90
_cell_angle_beta                        90
_cell_angle_gamma                       120
_symmetry_space_group_name_H-M          'P 1'
_symmetry_int_tables_number             1
loop_
  _symmetry_equiv_pos_as_xyz
         'x, y, z' 
loop_
  _atom_site_label
  _atom_site_occupancy
  _atom_site_fract_x
  _atom_site_fract_y
  _atom_site_fract_z
  _atom_site_thermal_displace_type
  _atom_site_B_iso_or_equiv
  _atom_site_type_symbol
  _atom_site_charge
         C1        1.0000    0.98540   0.48410   0.42720   Biso      1.000     C          -0.04496  
         C2        1.0000    0.01360   0.39070   0.96370   Biso      1.000     C          0.031833  
         C3        1.0000    0.55560   0.47500   0.14160   Biso      1.000     C          0.662731  
         C4        1.0000    0.47500   0.55560   0.85840   Biso      1.000     C          0.664093  
         C5        1.0000    0.50130   0.51590   0.92720   Biso      1.000     C          -0.044337           
         C6        1.0000    0.39680   0.39740   0.96350   Biso      1.000     C          0.005681  
         C7        1.0000    0.60930   0.62290   0.96370   Biso      1.000     C          -0.052555           
         C8        1.0000    0.39070   0.01360   0.03630   Biso      1.000     C          -0.042371           
         C9        1.0000    0.91940   0.44440   0.35840   Biso      1.000     C          0.663602  
         C10       1.0000    0.60320   0.00060   0.03650   Biso      1.000     C          0.010492  
         C11       1.0000    0.99940   0.60260   0.46350   Biso      1.000     C          0.010126  
         C12       1.0000    0.98640   0.37710   0.46370   Biso      1.000     C          -0.044397           
         C13       1.0000    0.49870   0.01460   0.07280   Biso      1.000     C          -0.046176           
         C14       1.0000    0.52500   0.08060   0.14160   Biso      1.000     C          0.663097  
         C15       1.0000    0.52500   0.08060   0.35840   Biso      1.000     C          0.663097  
         C16       1.0000    0.49870   0.01460   0.42720   Biso      1.000     C          -0.046177           
         C17       1.0000    0.60320   0.00060   0.46350   Biso      1.000     C          0.010495  
         C18       1.0000    0.39070   0.01360   0.46370   Biso      1.000     C          -0.04237  
         C19       1.0000    0.55560   0.47500   0.35840   Biso      1.000     C          0.662732  
         C20       1.0000    0.51590   0.50130   0.42720   Biso      1.000     C          -0.044405           
         C21       1.0000    0.39740   0.39680   0.46350   Biso      1.000     C          -0.066799           
         C22       1.0000    0.62290   0.60930   0.46370   Biso      1.000     C          0.029007  
         C23       1.0000    0.98640   0.37710   0.03630   Biso      1.000     C          -0.04438  
         C24       1.0000    0.99940   0.60260   0.03650   Biso      1.000     C          0.010112  
         C25       1.0000    0.91940   0.44440   0.14160   Biso      1.000     C          0.663605  
         C26       1.0000    0.01460   0.49870   0.92720   Biso      1.000     C          -0.045062           
         C27       1.0000    0.00060   0.60320   0.96350   Biso      1.000     C          -0.062021           
         C28       1.0000    0.51590   0.50130   0.07280   Biso      1.000     C          -0.044401           
         C29       1.0000    0.44440   0.91940   0.64160   Biso      1.000     C          0.662184  
         C30       1.0000    0.48410   0.98540   0.57280   Biso      1.000     C          -0.046774           
         C31       1.0000    0.60260   0.99940   0.53650   Biso      1.000     C          -0.05577  
         C32       1.0000    0.37710   0.98640   0.53630   Biso      1.000     C          0.032245  
         C33       1.0000    0.08060   0.52500   0.64160   Biso      1.000     C          0.662927  
         C34       1.0000    0.01460   0.49870   0.57280   Biso      1.000     C          -0.045056           
         C35       1.0000    0.00060   0.60320   0.53650   Biso      1.000     C          -0.062042           
         C36       1.0000    0.01360   0.39070   0.53630   Biso      1.000     C          0.031855  
         C37       1.0000    0.08060   0.52500   0.85840   Biso      1.000     C          0.662928  
         C38       1.0000    0.47500   0.55560   0.64160   Biso      1.000     C          0.664095  
         C39       1.0000    0.50130   0.51590   0.57280   Biso      1.000     C          -0.044344           
         C40       1.0000    0.98540   0.48410   0.07280   Biso      1.000     C          -0.044969           
         C41       1.0000    0.60930   0.62290   0.53630   Biso      1.000     C          -0.052533           
         C42       1.0000    0.39740   0.39680   0.03650   Biso      1.000     C          -0.066808           
         C43       1.0000    0.37710   0.98640   0.96370   Biso      1.000     C          0.032237  
         C44       1.0000    0.62290   0.60930   0.03630   Biso      1.000     C          0.029021  
         C45       1.0000    0.44440   0.91940   0.85840   Biso      1.000     C          0.662184  
         C46       1.0000    0.48410   0.98540   0.92720   Biso      1.000     C          -0.046772           
         C47       1.0000    0.60260   0.99940   0.96350   Biso      1.000     C          -0.055766           
         C48       1.0000    0.39680   0.39740   0.53650   Biso      1.000     C          0.005677  
         Cr1       1.0000    0.77640   0.53920   0.25000   Biso      1.000     Cr          1.574066  
         Cr2       1.0000    0.46080   0.23720   0.25000   Biso      1.000     Cr          1.569195  
         Cr3       1.0000    0.53920   0.77640   0.75000   Biso      1.000     Cr          1.569864  
         Cr4       1.0000    0.76280   0.22360   0.25000   Biso      1.000     Cr          1.570317  
         Cr5       1.0000    0.22360   0.76280   0.75000   Biso      1.000     Cr          1.574584  
         Cr6       1.0000    0.23720   0.46080   0.75000   Biso      1.000     Cr          1.574631  
         O1        1.0000    0.47740   0.36690   0.17770   Biso      1.000     O          -0.598685           
         O2        1.0000    0.67000   0.57400   0.17200   Biso      1.000     O          -0.605862           
         O3        1.0000    0.42600   0.09600   0.17200   Biso      1.000     O          -0.598768           
         O4        1.0000    0.63310   0.11050   0.17770   Biso      1.000     O          -0.602674           
         O5        1.0000    0.33000   0.90400   0.67200   Biso      1.000     O          -0.603648           
         O6        1.0000    0.90400   0.33000   0.17200   Biso      1.000     O          -0.599974           
         O7        1.0000    0.52260   0.88950   0.67770   Biso      1.000     O          -0.598765           
         O8        1.0000    0.09600   0.42600   0.67200   Biso      1.000     O          -0.604701           
         O9        1.0000    0.11050   0.63310   0.67770   Biso      1.000     O          -0.60003  
         O10       1.0000    0.57400   0.67000   0.67200   Biso      1.000     O          -0.599188           
         O11       1.0000    0.36690   0.47740   0.67770   Biso      1.000     O          -0.605208           
         O12       1.0000    0.33000   0.90400   0.82800   Biso      1.000     O          -0.603646           
         O13       1.0000    0.52260   0.88950   0.82230   Biso      1.000     O          -0.598762           
         O14       1.0000    0.09600   0.42600   0.82800   Biso      1.000     O          -0.604705           
         O15       1.0000    0.88950   0.52260   0.17770   Biso      1.000     O          -0.60393  
         O16       1.0000    0.11050   0.63310   0.82230   Biso      1.000     O          -0.600026           
         O17       1.0000    0.36690   0.47740   0.82230   Biso      1.000     O          -0.605206           
         O18       1.0000    0.90400   0.33000   0.32800   Biso      1.000     O          -0.599978           
         O19       1.0000    0.88950   0.52260   0.32230   Biso      1.000     O          -0.603925           
         O20       1.0000    0.33333   0.66667   0.75000   Biso      1.000     O          -0.997509           
         O21       1.0000    0.42600   0.09600   0.32800   Biso      1.000     O          -0.59877  
         O22       1.0000    0.63310   0.11050   0.32230   Biso      1.000     O          -0.602673           
         O23       1.0000    0.67000   0.57400   0.32800   Biso      1.000     O          -0.605865           
         O24       1.0000    0.47740   0.36690   0.32230   Biso      1.000     O          -0.598681           
         O25       1.0000    0.57400   0.67000   0.82800   Biso      1.000     O          -0.599192           
         O26       1.0000    0.66667   0.33333   0.25000   Biso      1.000     O          -0.997097 