
##########################################################################
#               Crystallographic Information Format file
#               Produced by PyCifRW module
#
#  This is a CIF file.  CIF has been adopted by the International
#  Union of Crystallography as the standard for data archiving and
#  transmission.
#
#  For information on this file format, follow the CIF links at
#  http://www.iucr.org
##########################################################################

data_image0

_cell_length_a                          12.717
_cell_length_b                          12.717
_cell_length_c                          12.717
_cell_angle_alpha                       90
_cell_angle_beta                        90
_cell_angle_gamma                       90
_symmetry_space_group_name_H-M          'P 1'
_symmetry_int_tables_number             1
loop_
  _symmetry_equiv_pos_as_xyz
         'x, y, z' 
loop_
  _atom_site_label
  _atom_site_occupancy
  _atom_site_fract_x
  _atom_site_fract_y
  _atom_site_fract_z
  _atom_site_thermal_displace_type
  _atom_site_B_iso_or_equiv
  _atom_site_type_symbol
  _atom_site_charge
         C1        1.0000    0.77570   0.27570   0.47430   Biso      1.000     C          -0.171032           
         C2        1.0000    0.97430   0.47430   0.47430   Biso      1.000     C          -0.171028           
         C3        1.0000    0.47430   0.97430   0.47430   Biso      1.000     C          -0.177042           
         C4        1.0000    0.47430   0.47430   0.97430   Biso      1.000     C          -0.171773           
         C5        1.0000    0.27570   0.47430   0.77570   Biso      1.000     C          -0.171022           
         C6        1.0000    0.27570   0.97430   0.27570   Biso      1.000     C          -0.179094           
         C7        1.0000    0.77570   0.97430   0.77570   Biso      1.000     C          -0.177052           
         C8        1.0000    0.47430   0.77570   0.27570   Biso      1.000     C          -0.179091           
         C9        1.0000    0.97430   0.97430   0.97430   Biso      1.000     C          -0.179108           
         C10       1.0000    0.97430   0.77570   0.77570   Biso      1.000     C          -0.177037           
         C11       1.0000    0.27570   0.27570   0.97430   Biso      1.000     C          -0.171773           
         C12       1.0000    0.77570   0.47430   0.27570   Biso      1.000     C          -0.171776           
         C13       1.0000    0.47430   0.27570   0.77570   Biso      1.000     C          -0.171026           
         C14       1.0000    0.97430   0.27570   0.27570   Biso      1.000     C          -0.171776           
         C15       1.0000    0.22430   0.72430   0.52570   Biso      1.000     C          -0.177039           
         C16       1.0000    0.22430   0.22430   0.02570   Biso      1.000     C          -0.171564           
         C17       1.0000    0.72430   0.52570   0.22430   Biso      1.000     C          -0.171562           
         C18       1.0000    0.27570   0.77570   0.47430   Biso      1.000     C          -0.176848           
         C19       1.0000    0.77570   0.77570   0.97430   Biso      1.000     C          -0.179103           
         C20       1.0000    0.02570   0.22430   0.22430   Biso      1.000     C          -0.171566           
         C21       1.0000    0.02570   0.72430   0.72430   Biso      1.000     C          -0.176846           
         C22       1.0000    0.02570   0.02570   0.02570   Biso      1.000     C          -0.170815           
         C23       1.0000    0.52570   0.22430   0.72430   Biso      1.000     C          -0.178889           
         C24       1.0000    0.52570   0.02570   0.52570   Biso      1.000     C          -0.176849           
         C25       1.0000    0.52570   0.52570   0.02570   Biso      1.000     C          -0.171562           
         C26       1.0000    0.72430   0.22430   0.52570   Biso      1.000     C          -0.178893           
         C27       1.0000    0.02570   0.52570   0.52570   Biso      1.000     C          -0.178905           
         C28       1.0000    0.22430   0.52570   0.72430   Biso      1.000     C          -0.178901           
         C29       1.0000    0.22430   0.02570   0.22430   Biso      1.000     C          -0.170818           
         C30       1.0000    0.72430   0.02570   0.72430   Biso      1.000     C          -0.176837           
         C31       1.0000    0.52570   0.72430   0.22430   Biso      1.000     C          -0.170813           
         C32       1.0000    0.72430   0.72430   0.02570   Biso      1.000     C          -0.170811           
         Cd1       1.0000    0.37500   0.87500   0.37500   Biso      1.000     Cd          0.704985  
         Cd2       1.0000    0.37500   0.37500   0.87500   Biso      1.000     Cd          0.692153  
         Cd3       1.0000    0.87500   0.87500   0.87500   Biso      1.000     Cd          0.705019  
         Cd4       1.0000    0.87500   0.37500   0.37500   Biso      1.000     Cd          0.692161  
         Cd5       1.0000    0.62500   0.62500   0.12500   Biso      1.000     Cd          0.692049  
         Cd6       1.0000    0.62500   0.12500   0.62500   Biso      1.000     Cd          0.704893  
         Cd7       1.0000    0.12500   0.62500   0.62500   Biso      1.000     Cd          0.704933  
         Cd8       1.0000    0.12500   0.12500   0.12500   Biso      1.000     Cd          0.692057 