
##########################################################################
#               Crystallographic Information Format file
#               Produced by PyCifRW module
#
#  This is a CIF file.  CIF has been adopted by the International
#  Union of Crystallography as the standard for data archiving and
#  transmission.
#
#  For information on this file format, follow the CIF links at
#  http://www.iucr.org
##########################################################################

data_image0

_cell_length_a                          12.743
_cell_length_b                          12.743
_cell_length_c                          12.743
_cell_angle_alpha                       90
_cell_angle_beta                        90
_cell_angle_gamma                       90
_symmetry_space_group_name_H-M          'P 1'
_symmetry_int_tables_number             1
loop_
  _symmetry_equiv_pos_as_xyz
         'x, y, z' 
loop_
  _atom_site_label
  _atom_site_occupancy
  _atom_site_fract_x
  _atom_site_fract_y
  _atom_site_fract_z
  _atom_site_thermal_displace_type
  _atom_site_B_iso_or_equiv
  _atom_site_type_symbol
  _atom_site_charge
         C1        1.0000    0.77570   0.27570   0.47430   Biso      1.000     C          -0.170301           
         C2        1.0000    0.97430   0.47430   0.47430   Biso      1.000     C          -0.170971           
         C3        1.0000    0.47430   0.97430   0.47430   Biso      1.000     C          -0.17635499999999998          
         C4        1.0000    0.47430   0.47430   0.97430   Biso      1.000     C          -0.17824700000000002          
         C5        1.0000    0.27570   0.47430   0.77570   Biso      1.000     C          -0.178251           
         C6        1.0000    0.27570   0.97430   0.27570   Biso      1.000     C          -0.17636400000000002          
         C7        1.0000    0.77570   0.97430   0.77570   Biso      1.000     C          -0.170309           
         C8        1.0000    0.47430   0.77570   0.27570   Biso      1.000     C          -0.178232           
         C9        1.0000    0.97430   0.97430   0.97430   Biso      1.000     C          -0.17031  
         C10       1.0000    0.97430   0.77570   0.77570   Biso      1.000     C          -0.170974           
         C11       1.0000    0.27570   0.27570   0.97430   Biso      1.000     C          -0.176376           
         C12       1.0000    0.77570   0.47430   0.27570   Biso      1.000     C          -0.17097  
         C13       1.0000    0.47430   0.27570   0.77570   Biso      1.000     C          -0.17636400000000002          
         C14       1.0000    0.97430   0.27570   0.27570   Biso      1.000     C          -0.170302           
         C15       1.0000    0.22430   0.72430   0.52570   Biso      1.000     C          -0.170302           
         C16       1.0000    0.22430   0.22430   0.02570   Biso      1.000     C          -0.17618  
         C17       1.0000    0.72430   0.52570   0.22430   Biso      1.000     C          -0.17077799999999999          
         C18       1.0000    0.27570   0.77570   0.47430   Biso      1.000     C          -0.178056           
         C19       1.0000    0.77570   0.77570   0.97430   Biso      1.000     C          -0.170974           
         C20       1.0000    0.02570   0.22430   0.22430   Biso      1.000     C          -0.178043           
         C21       1.0000    0.02570   0.72430   0.72430   Biso      1.000     C          -0.170783           
         C22       1.0000    0.02570   0.02570   0.02570   Biso      1.000     C          -0.178051           
         C23       1.0000    0.52570   0.22430   0.72430   Biso      1.000     C          -0.17618599999999998          
         C24       1.0000    0.52570   0.02570   0.52570   Biso      1.000     C          -0.176203           
         C25       1.0000    0.52570   0.52570   0.02570   Biso      1.000     C          -0.17011500000000002          
         C26       1.0000    0.72430   0.22430   0.52570   Biso      1.000     C          -0.178052           
         C27       1.0000    0.02570   0.52570   0.52570   Biso      1.000     C          -0.170782           
         C28       1.0000    0.22430   0.52570   0.72430   Biso      1.000     C          -0.170121           
         C29       1.0000    0.22430   0.02570   0.22430   Biso      1.000     C          -0.176198           
         C30       1.0000    0.72430   0.02570   0.72430   Biso      1.000     C          -0.178057           
         C31       1.0000    0.52570   0.72430   0.22430   Biso      1.000     C          -0.17011700000000002          
         C32       1.0000    0.72430   0.72430   0.02570   Biso      1.000     C          -0.17077799999999999          
         Cd1       1.0000    0.37500   0.87500   0.37500   Biso      1.000     Cd          0.70196   
         Cd2       1.0000    0.37500   0.37500   0.87500   Biso      1.000     Cd          0.701996  
         Cd3       1.0000    0.87500   0.87500   0.87500   Biso      1.000     Cd          0.689136  
         Cd4       1.0000    0.87500   0.37500   0.37500   Biso      1.000     Cd          0.689128  
         Cd5       1.0000    0.62500   0.62500   0.12500   Biso      1.000     Cd          0.689013  
         Cd6       1.0000    0.62500   0.12500   0.62500   Biso      1.000     Cd          0.701918  
         Cd7       1.0000    0.12500   0.62500   0.62500   Biso      1.000     Cd          0.689042  
         Cd8       1.0000    0.12500   0.12500   0.12500   Biso      1.000     Cd          0.701908 