
##########################################################################
#               Crystallographic Information Format file
#               Produced by PyCifRW module
#
#  This is a CIF file.  CIF has been adopted by the International
#  Union of Crystallography as the standard for data archiving and
#  transmission.
#
#  For information on this file format, follow the CIF links at
#  http://www.iucr.org
##########################################################################

data_image0

_cell_length_a                          12.243
_cell_length_b                          12.243
_cell_length_c                          12.243
_cell_angle_alpha                       90
_cell_angle_beta                        90
_cell_angle_gamma                       90
_symmetry_space_group_name_H-M          'P 1'
_symmetry_int_tables_number             1
loop_
  _symmetry_equiv_pos_as_xyz
         'x, y, z' 
loop_
  _atom_site_label
  _atom_site_occupancy
  _atom_site_fract_x
  _atom_site_fract_y
  _atom_site_fract_z
  _atom_site_thermal_displace_type
  _atom_site_B_iso_or_equiv
  _atom_site_type_symbol
  _atom_site_charge
         C1        1.0000    0.77720   0.27720   0.47280   Biso      1.000     C          -0.163079           
         C2        1.0000    0.97280   0.47280   0.47280   Biso      1.000     C          -0.158957           
         C3        1.0000    0.47280   0.97280   0.47280   Biso      1.000     C          -0.175887           
         C4        1.0000    0.47280   0.47280   0.97280   Biso      1.000     C          -0.175608           
         C5        1.0000    0.27720   0.47280   0.77720   Biso      1.000     C          -0.171472           
         C6        1.0000    0.27720   0.97280   0.27720   Biso      1.000     C          -0.174766           
         C7        1.0000    0.77720   0.97280   0.77720   Biso      1.000     C          -0.175502           
         C8        1.0000    0.47280   0.77720   0.27720   Biso      1.000     C          -0.173789           
         C9        1.0000    0.97280   0.97280   0.97280   Biso      1.000     C          -0.175104           
         C10       1.0000    0.97280   0.77720   0.77720   Biso      1.000     C          -0.171309           
         C11       1.0000    0.27720   0.27720   0.97280   Biso      1.000     C          -0.1755   
         C12       1.0000    0.77720   0.47280   0.27720   Biso      1.000     C          -0.163498           
         C13       1.0000    0.47280   0.27720   0.77720   Biso      1.000     C          -0.174826           
         C14       1.0000    0.97280   0.27720   0.27720   Biso      1.000     C          -0.164416           
         C15       1.0000    0.22280   0.72280   0.52720   Biso      1.000     C          -0.174704           
         C16       1.0000    0.22280   0.22280   0.02720   Biso      1.000     C          -0.167212           
         C17       1.0000    0.72280   0.52720   0.22280   Biso      1.000     C          -0.17561  
         C18       1.0000    0.27720   0.77720   0.47280   Biso      1.000     C          -0.171022           
         C19       1.0000    0.77720   0.77720   0.97280   Biso      1.000     C          -0.175872           
         C20       1.0000    0.02720   0.22280   0.22280   Biso      1.000     C          -0.17569200000000001          
         C21       1.0000    0.02720   0.72280   0.72280   Biso      1.000     C          -0.173547           
         C22       1.0000    0.02720   0.02720   0.02720   Biso      1.000     C          -0.166613           
         C23       1.0000    0.52720   0.22280   0.72280   Biso      1.000     C          -0.16708699999999999          
         C24       1.0000    0.52720   0.02720   0.52720   Biso      1.000     C          -0.169054           
         C25       1.0000    0.52720   0.52720   0.02720   Biso      1.000     C          -0.168193           
         C26       1.0000    0.72280   0.22280   0.52720   Biso      1.000     C          -0.175057           
         C27       1.0000    0.02720   0.52720   0.52720   Biso      1.000     C          -0.180854           
         C28       1.0000    0.22280   0.52720   0.72280   Biso      1.000     C          -0.174037           
         C29       1.0000    0.22280   0.02720   0.22280   Biso      1.000     C          -0.167151           
         C30       1.0000    0.72280   0.02720   0.72280   Biso      1.000     C          -0.167613           
         C31       1.0000    0.52720   0.72280   0.22280   Biso      1.000     C          -0.16697  
         C32       1.0000    0.72280   0.72280   0.02720   Biso      1.000     C          -0.168157           
         Cd1       1.0000    0.37500   0.87500   0.37500   Biso      1.000     Cd          0.688709  
         Cd2       1.0000    0.37500   0.37500   0.87500   Biso      1.000     Cd          0.689393  
         Cd3       1.0000    0.87500   0.87500   0.87500   Biso      1.000     Cd          0.689472  
         Cd4       1.0000    0.87500   0.37500   0.37500   Biso      1.000     Cd          0.6717810000000001  
         Cd5       1.0000    0.62500   0.62500   0.12500   Biso      1.000     Cd          0.682661  
         Cd6       1.0000    0.62500   0.12500   0.62500   Biso      1.000     Cd          0.682736  
         Cd7       1.0000    0.12500   0.62500   0.62500   Biso      1.000     Cd          0.6916180000000001  
         Cd8       1.0000    0.12500   0.12500   0.12500   Biso      1.000     Cd          0.6817880000000001 