
##########################################################################
#               Crystallographic Information Format file
#               Produced by PyCifRW module
#
#  This is a CIF file.  CIF has been adopted by the International
#  Union of Crystallography as the standard for data archiving and
#  transmission.
#
#  For information on this file format, follow the CIF links at
#  http://www.iucr.org
##########################################################################

data_image0

_cell_length_a                          4.7143
_cell_length_b                          11.7344
_cell_length_c                          13.6823
_cell_angle_alpha                       67.666
_cell_angle_beta                        89.269
_cell_angle_gamma                       82.096
_symmetry_space_group_name_H-M          'P 1'
_symmetry_int_tables_number             1
loop_
  _symmetry_equiv_pos_as_xyz
         'x, y, z' 
loop_
  _atom_site_label
  _atom_site_occupancy
  _atom_site_fract_x
  _atom_site_fract_y
  _atom_site_fract_z
  _atom_site_thermal_displace_type
  _atom_site_B_iso_or_equiv
  _atom_site_type_symbol
  _atom_site_charge
         Ag1       1.0000    0.73020   0.95096   0.93577   Biso      1.000     Ag          0.469249  
         Ag2       1.0000    0.32599   0.12973   0.78231   Biso      1.000     Ag          0.529824  
         Ag3       1.0000    0.26980   0.04904   0.06423   Biso      1.000     Ag          0.469238  
         Ag4       1.0000    0.67401   0.87027   0.21769   Biso      1.000     Ag          0.529774  
         C1        1.0000    0.91610   0.51350   0.73360   Biso      1.000     C          -0.200129           
         C2        1.0000    0.74160   0.23820   0.88720   Biso      1.000     C          0.646109  
         C3        1.0000    0.21910   0.75790   0.78740   Biso      1.000     C          -0.401158           
         C4        1.0000    0.32110   0.85250   0.82560   Biso      1.000     C          0.655506  
         C5        1.0000    0.99380   0.68120   0.55620   Biso      1.000     C          -0.412241           
         C6        1.0000    0.86260   0.66830   0.46090   Biso      1.000     C          0.613032  
         C7        1.0000    0.23030   0.52900   0.17220   Biso      1.000     C          0.165177  
         C8        1.0000    0.45900   0.45020   0.15610   Biso      1.000     C          -0.232685           
         C9        1.0000    0.54000   0.33040   0.23040   Biso      1.000     C          0.180951  
         C10       1.0000    0.16590   0.36610   0.34310   Biso      1.000     C          0.195649  
         C11       1.0000    0.83410   0.63390   0.65690   Biso      1.000     C          0.195633  
         C12       1.0000    0.08390   0.48650   0.26640   Biso      1.000     C          -0.200128           
         C13       1.0000    0.13970   0.65900   0.09100   Biso      1.000     C          -0.38645  
         C14       1.0000    0.25840   0.76180   0.11280   Biso      1.000     C          0.646121  
         C15       1.0000    0.78090   0.24210   0.21260   Biso      1.000     C          -0.401166           
         C16       1.0000    0.67890   0.14750   0.17440   Biso      1.000     C          0.655503  
         C17       1.0000    0.00620   0.31880   0.44380   Biso      1.000     C          -0.412246           
         C18       1.0000    0.13740   0.33170   0.53910   Biso      1.000     C          0.613046  
         C19       1.0000    0.39310   0.29080   0.32330   Biso      1.000     C          -0.255493           
         C20       1.0000    0.60690   0.70920   0.67670   Biso      1.000     C          -0.255501           
         C21       1.0000    0.86030   0.34100   0.90900   Biso      1.000     C          -0.386449           
         C22       1.0000    0.54100   0.54980   0.84390   Biso      1.000     C          -0.232658           
         C23       1.0000    0.76970   0.47100   0.82780   Biso      1.000     C          0.165145  
         C24       1.0000    0.46000   0.66960   0.76960   Biso      1.000     C          0.180929  
         H1        1.0000    0.43860   0.52110   0.90690   Biso      1.000     H          0.122227  
         H2        1.0000    0.54990   0.79050   0.62520   Biso      1.000     H          0.12386   
         H3        1.0000    0.07190   0.46060   0.72160   Biso      1.000     H          0.137208  
         H4        1.0000    0.07220   0.32330   0.91300   Biso      1.000     H          0.146324  
         H5        1.0000    0.10420   0.80320   0.72040   Biso      1.000     H          0.150166  
         H6        1.0000    0.09220   0.70880   0.84030   Biso      1.000     H          0.154587  
         H7        1.0000    0.00710   0.77030   0.53850   Biso      1.000     H          0.144162  
         H8        1.0000    0.19160   0.63580   0.56960   Biso      1.000     H          0.159769  
         H9        1.0000    0.79810   0.33860   0.97910   Biso      1.000     H          0.155611  
         H10       1.0000    0.45010   0.20950   0.37480   Biso      1.000     H          0.123899  
         H11       1.0000    0.92810   0.53940   0.27840   Biso      1.000     H          0.137232  
         H12       1.0000    0.92780   0.67670   0.08700   Biso      1.000     H          0.146342  
         H13       1.0000    0.20190   0.66140   0.02090   Biso      1.000     H          0.155632  
         H14       1.0000    0.89580   0.19680   0.27960   Biso      1.000     H          0.150172  
         H15       1.0000    0.90780   0.29120   0.15970   Biso      1.000     H          0.1546    
         H16       1.0000    0.99290   0.22970   0.46150   Biso      1.000     H          0.144174  
         H17       1.0000    0.80840   0.36420   0.43040   Biso      1.000     H          0.15978   
         H18       1.0000    0.56140   0.47890   0.09310   Biso      1.000     H          0.122264  
         O1        1.0000    0.84280   0.04510   0.19900   Biso      1.000     O          -0.555105           
         O2        1.0000    0.44810   0.17840   0.12010   Biso      1.000     O          -0.487965           
         O3        1.0000    0.47030   0.73310   0.17570   Biso      1.000     O          -0.462103           
         O4        1.0000    0.13540   0.87180   0.06320   Biso      1.000     O          -0.559388           
         O5        1.0000    0.66840   0.60150   0.47420   Biso      1.000     O          -0.370257           
         O6        1.0000    0.52970   0.26690   0.82430   Biso      1.000     O          -0.462077           
         O7        1.0000    0.15720   0.95490   0.80100   Biso      1.000     O          -0.555124           
         O8        1.0000    0.55190   0.82160   0.87990   Biso      1.000     O          -0.48797  
         O9        1.0000    0.86460   0.12820   0.93680   Biso      1.000     O          -0.559375           
         O10       1.0000    0.03370   0.27480   0.62770   Biso      1.000     O          -0.426451           
         O11       1.0000    0.96630   0.72520   0.37230   Biso      1.000     O          -0.426432           
         O12       1.0000    0.33160   0.39850   0.52580   Biso      1.000     O          -0.370342 