
##########################################################################
#               Crystallographic Information Format file
#               Produced by PyCifRW module
#
#  This is a CIF file.  CIF has been adopted by the International
#  Union of Crystallography as the standard for data archiving and
#  transmission.
#
#  For information on this file format, follow the CIF links at
#  http://www.iucr.org
##########################################################################

data_image0

_cell_length_a                          8.1324
_cell_length_b                          11.344
_cell_length_c                          39.266
_cell_angle_alpha                       90
_cell_angle_beta                        90
_cell_angle_gamma                       102.908
_symmetry_space_group_name_H-M          'P 1'
_symmetry_int_tables_number             1
loop_
  _symmetry_equiv_pos_as_xyz
         'x, y, z' 
loop_
  _atom_site_label
  _atom_site_occupancy
  _atom_site_fract_x
  _atom_site_fract_y
  _atom_site_fract_z
  _atom_site_thermal_displace_type
  _atom_site_B_iso_or_equiv
  _atom_site_type_symbol
  _atom_site_charge
         C1        1.0000    0.75220   0.02800   0.47156   Biso      1.000     C          -0.251637           
         C2        1.0000    0.82660   0.01880   0.54033   Biso      1.000     C          0.183604  
         C3        1.0000    0.70150   0.92920   0.52561   Biso      1.000     C          -0.250179           
         C4        1.0000    0.66460   0.93230   0.49126   Biso      1.000     C          0.178948  
         C5        1.0000    0.97220   0.22340   0.46509   Biso      1.000     C          -0.382144           
         C6        1.0000    0.87780   0.32340   0.46151   Biso      1.000     C          0.67011   
         C7        1.0000    0.86120   0.02140   0.57804   Biso      1.000     C          -0.396905           
         C8        1.0000    0.74960   0.09620   0.59472   Biso      1.000     C          0.655384  
         C9        1.0000    0.53180   0.83200   0.47510   Biso      1.000     C          -0.391523           
         C10       1.0000    0.60960   0.73750   0.45826   Biso      1.000     C          0.696861  
         C11       1.0000    0.91450   0.11180   0.51995   Biso      1.000     C          -0.235834           
         C12       1.0000    0.62770   0.84060   0.76243   Biso      1.000     C          0.180754  
         C13       1.0000    0.53180   0.01260   0.74023   Biso      1.000     C          0.18164   
         C14       1.0000    0.50120   0.04520   0.77334   Biso      1.000     C          -0.247701           
         C15       1.0000    0.53700   0.98020   0.80092   Biso      1.000     C          0.181875  
         C16       1.0000    0.60040   0.87750   0.79510   Biso      1.000     C          -0.246992           
         C17       1.0000    0.69480   0.72880   0.75569   Biso      1.000     C          -0.383636           
         C18       1.0000    0.58230   0.61090   0.76820   Biso      1.000     C          0.664941  
         C19       1.0000    0.49500   0.08760   0.71067   Biso      1.000     C          -0.401643           
         C20       1.0000    0.63560   0.19480   0.70222   Biso      1.000     C          0.692232  
         C21       1.0000    0.50980   0.02240   0.83672   Biso      1.000     C          -0.391396           
         C22       1.0000    0.59370   0.90970   0.73534   Biso      1.000     C          -0.255773           
         C23       1.0000    0.67560   0.08880   0.85196   Biso      1.000     C          0.656052  
         C24       1.0000    0.87610   0.11790   0.48585   Biso      1.000     C          0.181195  
         C25       1.0000    0.99020   0.97760   0.33672   Biso      1.000     C          -0.391396           
         C26       1.0000    0.75040   0.90380   0.09472   Biso      1.000     C          0.655384  
         C27       1.0000    0.63880   0.97860   0.07804   Biso      1.000     C          -0.396905           
         C28       1.0000    0.62220   0.67660   0.96151   Biso      1.000     C          0.67011   
         C29       1.0000    0.52780   0.77660   0.96509   Biso      1.000     C          -0.382143           
         C30       1.0000    0.74780   0.97200   0.97156   Biso      1.000     C          -0.251637           
         C31       1.0000    0.83540   0.06770   0.99126   Biso      1.000     C          0.178945  
         C32       1.0000    0.79850   0.07080   0.02561   Biso      1.000     C          -0.250176           
         C33       1.0000    0.67340   0.98120   0.04033   Biso      1.000     C          0.183603  
         C34       1.0000    0.58550   0.88820   0.01995   Biso      1.000     C          -0.235834           
         C35       1.0000    0.82440   0.91120   0.35196   Biso      1.000     C          0.656052  
         C36       1.0000    0.62390   0.88210   0.98585   Biso      1.000     C          0.181195  
         C37       1.0000    0.90630   0.09030   0.23534   Biso      1.000     C          -0.255776           
         C38       1.0000    0.96820   0.98740   0.24023   Biso      1.000     C          0.181642  
         C39       1.0000    0.99880   0.95480   0.27334   Biso      1.000     C          -0.247701           
         C40       1.0000    0.96300   0.01980   0.30092   Biso      1.000     C          0.181875  
         C41       1.0000    0.89960   0.12250   0.29510   Biso      1.000     C          -0.246996           
         C42       1.0000    0.80520   0.27120   0.25569   Biso      1.000     C          -0.383637           
         C43       1.0000    0.91770   0.38910   0.26820   Biso      1.000     C          0.664941  
         C44       1.0000    0.00500   0.91240   0.21067   Biso      1.000     C          -0.401643           
         C45       1.0000    0.86440   0.80520   0.20222   Biso      1.000     C          0.692232  
         C46       1.0000    0.87230   0.15940   0.26243   Biso      1.000     C          0.180759  
         C47       1.0000    0.37610   0.11790   0.01415   Biso      1.000     C          0.181194  
         C48       1.0000    0.41450   0.11180   0.98005   Biso      1.000     C          -0.235834           
         C49       1.0000    0.32660   0.01880   0.95967   Biso      1.000     C          0.183605  
         C50       1.0000    0.33540   0.06770   0.50874   Biso      1.000     C          0.178944  
         C51       1.0000    0.24780   0.97200   0.52844   Biso      1.000     C          -0.251637           
         C52       1.0000    0.02780   0.77660   0.53491   Biso      1.000     C          -0.382144           
         C53       1.0000    0.12220   0.67660   0.53849   Biso      1.000     C          0.67011   
         C54       1.0000    0.13880   0.97860   0.42196   Biso      1.000     C          -0.396905           
         C55       1.0000    0.25040   0.90380   0.40528   Biso      1.000     C          0.655384  
         C56       1.0000    0.46820   0.16800   0.52490   Biso      1.000     C          -0.391523           
         C57       1.0000    0.39040   0.26250   0.54174   Biso      1.000     C          0.696861  
         C58       1.0000    0.37230   0.15940   0.23757   Biso      1.000     C          0.180754  
         C59       1.0000    0.29850   0.07080   0.47439   Biso      1.000     C          -0.250176           
         C60       1.0000    0.40630   0.09030   0.26466   Biso      1.000     C          -0.255774           
         C61       1.0000    0.49880   0.95480   0.22666   Biso      1.000     C          -0.247703           
         C62       1.0000    0.46300   0.01980   0.19908   Biso      1.000     C          0.181875  
         C63       1.0000    0.39960   0.12250   0.20490   Biso      1.000     C          -0.246992           
         C64       1.0000    0.30520   0.27120   0.24431   Biso      1.000     C          -0.383636           
         C65       1.0000    0.41770   0.38910   0.23180   Biso      1.000     C          0.664941  
         C66       1.0000    0.50500   0.91240   0.28933   Biso      1.000     C          -0.401644           
         C67       1.0000    0.36440   0.80520   0.29778   Biso      1.000     C          0.692232  
         C68       1.0000    0.49020   0.97760   0.16328   Biso      1.000     C          -0.391396           
         C69       1.0000    0.32440   0.91120   0.14804   Biso      1.000     C          0.656052  
         C70       1.0000    0.46820   0.98740   0.25977   Biso      1.000     C          0.181644  
         C71       1.0000    0.17340   0.98120   0.45967   Biso      1.000     C          0.183603  
         C72       1.0000    0.08550   0.88820   0.48005   Biso      1.000     C          -0.235834           
         C73       1.0000    0.12390   0.88210   0.51415   Biso      1.000     C          0.181195  
         C74       1.0000    0.20150   0.92920   0.97439   Biso      1.000     C          -0.250179           
         C75       1.0000    0.16460   0.93230   0.00874   Biso      1.000     C          0.178948  
         C76       1.0000    0.25220   0.02800   0.02844   Biso      1.000     C          -0.251637           
         C77       1.0000    0.47220   0.22340   0.03491   Biso      1.000     C          -0.382143           
         C78       1.0000    0.37780   0.32340   0.03849   Biso      1.000     C          0.67011   
         C79       1.0000    0.36120   0.02140   0.92196   Biso      1.000     C          -0.396905           
         C80       1.0000    0.24960   0.09620   0.90528   Biso      1.000     C          0.655384  
         C81       1.0000    0.03180   0.83200   0.02490   Biso      1.000     C          -0.391523           
         C82       1.0000    0.10960   0.73750   0.04174   Biso      1.000     C          0.696861  
         C83       1.0000    0.12770   0.84060   0.73757   Biso      1.000     C          0.180754  
         C84       1.0000    0.09370   0.90970   0.76466   Biso      1.000     C          -0.255774           
         C85       1.0000    0.03180   0.01260   0.75977   Biso      1.000     C          0.181642  
         C86       1.0000    0.00120   0.04520   0.72666   Biso      1.000     C          -0.247701           
         C87       1.0000    0.03700   0.98020   0.69908   Biso      1.000     C          0.181875  
         C88       1.0000    0.10040   0.87750   0.70490   Biso      1.000     C          -0.246992           
         C89       1.0000    0.19480   0.72880   0.74431   Biso      1.000     C          -0.383636           
         C90       1.0000    0.08230   0.61090   0.73180   Biso      1.000     C          0.664941  
         C91       1.0000    0.99500   0.08760   0.78933   Biso      1.000     C          -0.401643           
         C92       1.0000    0.13560   0.19480   0.79778   Biso      1.000     C          0.692232  
         C93       1.0000    0.00980   0.02240   0.66328   Biso      1.000     C          -0.391396           
         C94       1.0000    0.17560   0.08880   0.64804   Biso      1.000     C          0.656051  
         C95       1.0000    0.96820   0.16800   0.97510   Biso      1.000     C          -0.391523           
         C96       1.0000    0.89040   0.26250   0.95826   Biso      1.000     C          0.696861  
         Cd1       1.0000    0.75928   0.48146   0.94787   Biso      1.000     Cd          0.981157  
         Cd2       1.0000    0.98874   0.19049   0.87761   Biso      1.000     Cd          1.026479  
         Cd3       1.0000    0.09504   0.59544   0.29949   Biso      1.000     Cd          0.998981  
         Cd4       1.0000    0.01126   0.80951   0.12239   Biso      1.000     Cd          1.026479  
         Cd5       1.0000    0.74072   0.51854   0.44787   Biso      1.000     Cd          0.981157  
         Cd6       1.0000    0.40496   0.40456   0.79949   Biso      1.000     Cd          0.998982  
         Cd7       1.0000    0.48874   0.19049   0.62239   Biso      1.000     Cd          1.026479  
         Cd8       1.0000    0.24072   0.51854   0.05213   Biso      1.000     Cd          0.981158  
         Cd9       1.0000    0.90496   0.40456   0.70051   Biso      1.000     Cd          0.998982  
         Cd10      1.0000    0.25928   0.48146   0.55213   Biso      1.000     Cd          0.981158  
         Cd11      1.0000    0.59504   0.59544   0.20051   Biso      1.000     Cd          0.998982  
         Cd12      1.0000    0.51126   0.80951   0.37761   Biso      1.000     Cd          1.026479  
         H1        1.0000    0.64200   0.86650   0.53900   Biso      1.000     H          0.129297  
         H2        1.0000    0.00040   0.17080   0.52940   Biso      1.000     H          0.119904  
         H3        1.0000    0.53900   0.04680   0.14920   Biso      1.000     H          0.152224  
         H4        1.0000    0.03900   0.04680   0.35080   Biso      1.000     H          0.152224  
         H5        1.0000    0.72710   0.03150   0.44850   Biso      1.000     H          0.140455  
         H6        1.0000    0.06840   0.92440   0.33610   Biso      1.000     H          0.148602  
         H7        1.0000    0.99390   0.19490   0.44260   Biso      1.000     H          0.15435   
         H8        1.0000    0.61290   0.88630   0.71330   Biso      1.000     H          0.127992  
         H9        1.0000    0.97910   0.05740   0.58240   Biso      1.000     H          0.1504    
         H10       1.0000    0.83570   0.93980   0.58720   Biso      1.000     H          0.143389  
         H11       1.0000    0.46930   0.86680   0.45820   Biso      1.000     H          0.151968  
         H12       1.0000    0.45290   0.79380   0.49250   Biso      1.000     H          0.156381  
         H13       1.0000    0.10580   0.88350   0.21580   Biso      1.000     H          0.171993  
         H14       1.0000    0.08020   0.25560   0.47590   Biso      1.000     H          0.154812  
         H15       1.0000    0.02860   0.96380   0.19070   Biso      1.000     H          0.156826  
         H16       1.0000    0.04710   0.20620   0.99250   Biso      1.000     H          0.156381  
         H17       1.0000    0.78860   0.27760   0.23140   Biso      1.000     H          0.148178  
         H18       1.0000    0.87520   0.16700   0.31360   Biso      1.000     H          0.13656   
         H19       1.0000    0.04450   0.88770   0.27700   Biso      1.000     H          0.114053  
         H20       1.0000    0.88710   0.11370   0.21330   Biso      1.000     H          0.127991  
         H21       1.0000    0.45550   0.11230   0.77700   Biso      1.000     H          0.114053  
         H22       1.0000    0.03070   0.13320   0.95820   Biso      1.000     H          0.151968  
         H23       1.0000    0.56840   0.92440   0.16390   Biso      1.000     H          0.148602  
         H24       1.0000    0.52090   0.94260   0.08240   Biso      1.000     H          0.1504    
         H25       1.0000    0.41980   0.74440   0.97590   Biso      1.000     H          0.154812  
         H26       1.0000    0.50610   0.80510   0.94260   Biso      1.000     H          0.15435   
         H27       1.0000    0.77290   0.96850   0.94850   Biso      1.000     H          0.140455  
         H28       1.0000    0.85800   0.13350   0.03900   Biso      1.000     H          0.129297  
         H29       1.0000    0.49960   0.82920   0.02940   Biso      1.000     H          0.119904  
         H30       1.0000    0.69570   0.26110   0.26650   Biso      1.000     H          0.15529   
         H31       1.0000    0.62480   0.83300   0.81360   Biso      1.000     H          0.13656   
         H32       1.0000    0.66430   0.06020   0.08720   Biso      1.000     H          0.143388  
         H33       1.0000    0.80430   0.73890   0.76650   Biso      1.000     H          0.15529   
         H34       1.0000    0.93160   0.07560   0.66390   Biso      1.000     H          0.148602  
         H35       1.0000    0.99960   0.82920   0.47060   Biso      1.000     H          0.119904  
         H36       1.0000    0.35800   0.13350   0.46100   Biso      1.000     H          0.129297  
         H37       1.0000    0.27290   0.96850   0.55150   Biso      1.000     H          0.140455  
         H38       1.0000    0.00610   0.80510   0.55740   Biso      1.000     H          0.154349  
         H39       1.0000    0.91980   0.74440   0.52410   Biso      1.000     H          0.154812  
         H40       1.0000    0.02090   0.94260   0.41760   Biso      1.000     H          0.1504    
         H41       1.0000    0.16430   0.06020   0.41280   Biso      1.000     H          0.143388  
         H42       1.0000    0.54710   0.20620   0.50750   Biso      1.000     H          0.156381  
         H43       1.0000    0.38710   0.11370   0.28670   Biso      1.000     H          0.127992  
         H44       1.0000    0.54450   0.88770   0.22300   Biso      1.000     H          0.114054  
         H45       1.0000    0.37520   0.16700   0.18640   Biso      1.000     H          0.13656   
         H46       1.0000    0.28860   0.27760   0.26860   Biso      1.000     H          0.148177  
         H47       1.0000    0.19570   0.26110   0.23350   Biso      1.000     H          0.15529   
         H48       1.0000    0.52860   0.96380   0.30930   Biso      1.000     H          0.156825  
         H49       1.0000    0.60580   0.88350   0.28420   Biso      1.000     H          0.171993  
         H50       1.0000    0.71140   0.72240   0.73140   Biso      1.000     H          0.148178  
         H51       1.0000    0.96100   0.95320   0.64920   Biso      1.000     H          0.152222  
         H52       1.0000    0.89420   0.11650   0.78420   Biso      1.000     H          0.171993  
         H53       1.0000    0.53070   0.13320   0.54180   Biso      1.000     H          0.151968  
         H54       1.0000    0.30430   0.73890   0.73350   Biso      1.000     H          0.15529   
         H55       1.0000    0.47140   0.03620   0.69070   Biso      1.000     H          0.156825  
         H56       1.0000    0.97140   0.03620   0.80930   Biso      1.000     H          0.156826  
         H57       1.0000    0.39420   0.11650   0.71580   Biso      1.000     H          0.171993  
         H58       1.0000    0.46100   0.95320   0.85080   Biso      1.000     H          0.152223  
         H59       1.0000    0.43160   0.07560   0.83610   Biso      1.000     H          0.148602  
         H60       1.0000    0.50040   0.17080   0.97060   Biso      1.000     H          0.119904  
         H61       1.0000    0.22710   0.03150   0.05150   Biso      1.000     H          0.140455  
         H62       1.0000    0.49390   0.19490   0.05740   Biso      1.000     H          0.154349  
         H63       1.0000    0.58020   0.25560   0.02410   Biso      1.000     H          0.154812  
         H64       1.0000    0.14200   0.86650   0.96100   Biso      1.000     H          0.129297  
         H65       1.0000    0.47910   0.05740   0.91760   Biso      1.000     H          0.1504    
         H66       1.0000    0.33570   0.93980   0.91280   Biso      1.000     H          0.143388  
         H67       1.0000    0.96930   0.86680   0.04180   Biso      1.000     H          0.151968  
         H68       1.0000    0.95290   0.79380   0.00750   Biso      1.000     H          0.156381  
         H69       1.0000    0.11290   0.88630   0.78670   Biso      1.000     H          0.127991  
         H70       1.0000    0.95550   0.11230   0.72300   Biso      1.000     H          0.114053  
         H71       1.0000    0.12480   0.83300   0.68640   Biso      1.000     H          0.13656   
         H72       1.0000    0.21140   0.72240   0.76860   Biso      1.000     H          0.148177  
         O1        1.0000    0.22110   0.25340   0.77411   Biso      1.000     O          -0.524169           
         O2        1.0000    0.01200   0.53130   0.75215   Biso      1.000     O          -0.575172           
         O3        1.0000    0.06460   0.59720   0.70000   Biso      1.000     O          -0.548278           
         O4        1.0000    0.12030   0.73200   0.07315   Biso      1.000     O          -0.594679           
         O5        1.0000    0.29230   0.20970   0.90538   Biso      1.000     O          -0.627595           
         O6        1.0000    0.11140   0.04060   0.89345   Biso      1.000     O          -0.579355           
         O7        1.0000    0.32970   0.34650   0.06782   Biso      1.000     O          -0.544883           
         O8        1.0000    0.16370   0.22320   0.82834   Biso      1.000     O          -0.599375           
         O9        1.0000    0.16360   0.66490   0.02236   Biso      1.000     O          -0.544315           
         O10       1.0000    0.25080   0.03350   0.62757   Biso      1.000     O          -0.579024           
         O11       1.0000    0.48800   0.46870   0.25215   Biso      1.000     O          -0.575172           
         O12       1.0000    0.15150   0.61720   0.51312   Biso      1.000     O          -0.569613           
         O13       1.0000    0.17030   0.65350   0.56782   Biso      1.000     O          -0.544884           
         O14       1.0000    0.38860   0.95940   0.39345   Biso      1.000     O          -0.579355           
         O15       1.0000    0.20770   0.79030   0.40538   Biso      1.000     O          -0.627595           
         O16       1.0000    0.33640   0.33510   0.52236   Biso      1.000     O          -0.544316           
         O17       1.0000    0.37970   0.26800   0.57315   Biso      1.000     O          -0.594679           
         O18       1.0000    0.43540   0.40280   0.20000   Biso      1.000     O          -0.548278           
         O19       1.0000    0.27890   0.74660   0.27411   Biso      1.000     O          -0.524169           
         O20       1.0000    0.34850   0.38280   0.01312   Biso      1.000     O          -0.569613           
         O21       1.0000    0.33630   0.77680   0.32834   Biso      1.000     O          -0.599375           
         O22       1.0000    0.24040   0.19600   0.65637   Biso      1.000     O          -0.621065           
         O23       1.0000    0.74040   0.19600   0.84363   Biso      1.000     O          -0.621065           
         O24       1.0000    0.70770   0.79030   0.09462   Biso      1.000     O          -0.627595           
         O25       1.0000    0.66370   0.22320   0.67166   Biso      1.000     O          -0.599375           
         O26       1.0000    0.24920   0.96650   0.12757   Biso      1.000     O          -0.579024           
         O27       1.0000    0.65150   0.61720   0.98688   Biso      1.000     O          -0.569612           
         O28       1.0000    0.67030   0.65350   0.93218   Biso      1.000     O          -0.544883           
         O29       1.0000    0.88860   0.95940   0.10655   Biso      1.000     O          -0.579355           
         O30       1.0000    0.83640   0.33510   0.97764   Biso      1.000     O          -0.544316           
         O31       1.0000    0.87970   0.26800   0.92685   Biso      1.000     O          -0.594679           
         O32       1.0000    0.93540   0.40280   0.30000   Biso      1.000     O          -0.548278           
         O33       1.0000    0.98800   0.46870   0.24785   Biso      1.000     O          -0.575172           
         O34       1.0000    0.77890   0.74660   0.22589   Biso      1.000     O          -0.524169           
         O35       1.0000    0.83630   0.77680   0.17166   Biso      1.000     O          -0.599375           
         O36       1.0000    0.74920   0.96650   0.37243   Biso      1.000     O          -0.579024           
         O37       1.0000    0.75960   0.80400   0.34363   Biso      1.000     O          -0.621065           
         O38       1.0000    0.84850   0.38280   0.48688   Biso      1.000     O          -0.569613           
         O39       1.0000    0.82970   0.34650   0.43218   Biso      1.000     O          -0.544884           
         O40       1.0000    0.61140   0.04060   0.60655   Biso      1.000     O          -0.579355           
         O41       1.0000    0.79230   0.20970   0.59462   Biso      1.000     O          -0.627595           
         O42       1.0000    0.66360   0.66490   0.47764   Biso      1.000     O          -0.544315           
         O43       1.0000    0.62030   0.73200   0.42685   Biso      1.000     O          -0.594679           
         O44       1.0000    0.56460   0.59720   0.80000   Biso      1.000     O          -0.548278           
         O45       1.0000    0.51200   0.53130   0.74785   Biso      1.000     O          -0.575172           
         O46       1.0000    0.72110   0.25340   0.72589   Biso      1.000     O          -0.524169           
         O47       1.0000    0.75080   0.03350   0.87243   Biso      1.000     O          -0.579024           
         O48       1.0000    0.25960   0.80400   0.15637   Biso      1.000     O          -0.621065 