
##########################################################################
#               Crystallographic Information Format file
#               Produced by PyCifRW module
#
#  This is a CIF file.  CIF has been adopted by the International
#  Union of Crystallography as the standard for data archiving and
#  transmission.
#
#  For information on this file format, follow the CIF links at
#  http://www.iucr.org
##########################################################################

data_image0

_cell_length_a                          16.6727
_cell_length_b                          17.5916
_cell_length_c                          18.734
_cell_angle_alpha                       77.8267
_cell_angle_beta                        63.5777
_cell_angle_gamma                       61.7135
_symmetry_space_group_name_H-M          'P 1'
_symmetry_int_tables_number             1
loop_
  _symmetry_equiv_pos_as_xyz
         'x, y, z' 
loop_
  _atom_site_label
  _atom_site_occupancy
  _atom_site_fract_x
  _atom_site_fract_y
  _atom_site_fract_z
  _atom_site_thermal_displace_type
  _atom_site_B_iso_or_equiv
  _atom_site_type_symbol
  _atom_site_charge
         C1        1.0000    0.38738   0.92604   0.57720   Biso      1.000     C          0.585305  
         C2        1.0000    0.09436   0.05604   0.18924   Biso      1.000     C          -0.080964           
         C3        1.0000    0.06996   0.09984   0.12504   Biso      1.000     C          -0.0663   
         C4        1.0000    0.18614   0.21306   0.35646   Biso      1.000     C          -0.20936  
         C5        1.0000    0.24708   0.17946   0.39678   Biso      1.000     C          -0.084283           
         C6        1.0000    0.39729   0.06362   0.41760   Biso      1.000     C          0.588714  
         C7        1.0000    0.32038   0.88166   0.61338   Biso      1.000     C          -0.06027  
         C8        1.0000    0.23968   0.90756   0.68668   Biso      1.000     C          -0.086827           
         C9        1.0000    0.18054   0.86442   0.71950   Biso      1.000     C          -0.209238           
         C10       1.0000    0.19887   0.79492   0.68054   Biso      1.000     C          0.269174  
         C11       1.0000    0.27903   0.77076   0.60618   Biso      1.000     C          -0.211045           
         C12       1.0000    0.33916   0.81274   0.57404   Biso      1.000     C          -0.084921           
         C13       1.0000    0.12277   0.08912   0.22874   Biso      1.000     C          -0.211898           
         C14       1.0000    0.29484   0.40016   0.37496   Biso      1.000     C          -0.060603           
         C15       1.0000    0.44063   0.41088   0.27126   Biso      1.000     C          -0.221153           
         C16       1.0000    0.50161   0.33086   0.29272   Biso      1.000     C          0.269419  
         C17       1.0000    0.45740   0.28694   0.35646   Biso      1.000     C          -0.20848  
         C18       1.0000    0.35614   0.32054   0.39678   Biso      1.000     C          -0.088534           
         C19       1.0000    0.18511   0.43638   0.41760   Biso      1.000     C          0.589887  
         C20       1.0000    0.03542   0.57396   0.57720   Biso      1.000     C          0.587696  
         C21       1.0000    0.06624   0.61834   0.61338   Biso      1.000     C          -0.059868           
         C22       1.0000    0.07364   0.59244   0.68668   Biso      1.000     C          -0.086212           
         C23       1.0000    0.09996   0.63558   0.71950   Biso      1.000     C          -0.213532           
         C24       1.0000    0.12059   0.70508   0.68054   Biso      1.000     C          0.266846  
         C25       1.0000    0.11479   0.72924   0.60618   Biso      1.000     C          -0.21569  
         C26       1.0000    0.33964   0.44396   0.31076   Biso      1.000     C          -0.08582  
         C27       1.0000    0.08680   0.68726   0.57404   Biso      1.000     C          -0.079838           
         C28       1.0000    0.12519   0.16914   0.20728   Biso      1.000     C          0.271134  
         C29       1.0000    0.07346   0.17946   0.10322   Biso      1.000     C          -0.083889           
         C30       1.0000    0.34960   0.05604   0.31076   Biso      1.000     C          -0.083327           
         C31       1.0000    0.33020   0.09984   0.37496   Biso      1.000     C          -0.065197           
         C32       1.0000    0.72594   0.68726   0.92596   Biso      1.000     C          -0.084471           
         C33       1.0000    0.65597   0.72924   0.89382   Biso      1.000     C          -0.210981           
         C34       1.0000    0.67433   0.70508   0.81946   Biso      1.000     C          0.268556  
         C35       1.0000    0.76446   0.63558   0.78050   Biso      1.000     C          -0.211347           
         C36       1.0000    0.83392   0.59244   0.81332   Biso      1.000     C          -0.085341           
         C37       1.0000    0.81542   0.61834   0.88662   Biso      1.000     C          -0.060588           
         C38       1.0000    0.89062   0.57396   0.92280   Biso      1.000     C          0.584696  
         C39       1.0000    0.87851   0.43638   0.08240   Biso      1.000     C          0.590653  
         C40       1.0000    0.82332   0.32054   0.10322   Biso      1.000     C          -0.085399           
         C41       1.0000    0.10080   0.21306   0.14354   Biso      1.000     C          -0.211562           
         C42       1.0000    0.75566   0.28694   0.14354   Biso      1.000     C          -0.211621           
         C43       1.0000    0.64849   0.41088   0.22874   Biso      1.000     C          -0.221777           
         C44       1.0000    0.71640   0.44396   0.18924   Biso      1.000     C          -0.082323           
         C45       1.0000    0.80500   0.40016   0.12504   Biso      1.000     C          -0.064199           
         C46       1.0000    0.34810   0.81274   0.92596   Biso      1.000     C          -0.085802           
         C47       1.0000    0.45021   0.77076   0.89382   Biso      1.000     C          -0.209408           
         C48       1.0000    0.50621   0.79492   0.81946   Biso      1.000     C          0.267795  
         C49       1.0000    0.45504   0.86442   0.78050   Biso      1.000     C          -0.212679           
         C50       1.0000    0.35276   0.90756   0.81332   Biso      1.000     C          -0.087709           
         C51       1.0000    0.29796   0.88166   0.88662   Biso      1.000     C          -0.059013           
         C52       1.0000    0.18658   0.92604   0.92280   Biso      1.000     C          0.584608  
         C53       1.0000    0.03909   0.06362   0.08240   Biso      1.000     C          0.592798  
         C54       1.0000    0.66753   0.33086   0.20728   Biso      1.000     C          0.270975  
         C55       1.0000    0.93004   0.90016   0.87496   Biso      1.000     C          -0.066299           
         C56       1.0000    0.90564   0.94396   0.81076   Biso      1.000     C          -0.080972           
         C57       1.0000    0.87723   0.91088   0.77126   Biso      1.000     C          -0.211896           
         C58       1.0000    0.81386   0.78694   0.64354   Biso      1.000     C          -0.209358           
         C59       1.0000    0.75292   0.82054   0.60322   Biso      1.000     C          -0.084287           
         C60       1.0000    0.60271   0.93638   0.58240   Biso      1.000     C          0.588714  
         C61       1.0000    0.61262   0.07396   0.42280   Biso      1.000     C          0.585304  
         C62       1.0000    0.67962   0.11834   0.38662   Biso      1.000     C          -0.06027  
         C63       1.0000    0.76032   0.09244   0.31332   Biso      1.000     C          -0.086829           
         C64       1.0000    0.81946   0.13558   0.28050   Biso      1.000     C          -0.209237           
         C65       1.0000    0.80113   0.20508   0.31946   Biso      1.000     C          0.269174  
         C66       1.0000    0.72097   0.22924   0.39382   Biso      1.000     C          -0.211046           
         C67       1.0000    0.66084   0.18726   0.42596   Biso      1.000     C          -0.084917           
         C68       1.0000    0.70516   0.59984   0.62504   Biso      1.000     C          -0.060601           
         C69       1.0000    0.79433   0.83086   0.70728   Biso      1.000     C          0.270072  
         C70       1.0000    0.66036   0.55604   0.68924   Biso      1.000     C          -0.085832           
         C71       1.0000    0.49839   0.66914   0.70728   Biso      1.000     C          0.26942   
         C72       1.0000    0.54260   0.71306   0.64354   Biso      1.000     C          -0.208481           
         C73       1.0000    0.64386   0.67946   0.60322   Biso      1.000     C          -0.088534           
         C74       1.0000    0.81489   0.56362   0.58240   Biso      1.000     C          0.589886  
         C75       1.0000    0.96458   0.42604   0.42280   Biso      1.000     C          0.587698  
         C76       1.0000    0.93376   0.38166   0.38662   Biso      1.000     C          -0.059866           
         C77       1.0000    0.92636   0.40756   0.31332   Biso      1.000     C          -0.086211           
         C78       1.0000    0.90004   0.36442   0.28050   Biso      1.000     C          -0.213531           
         C79       1.0000    0.87941   0.29492   0.31946   Biso      1.000     C          0.266847  
         C80       1.0000    0.88521   0.27076   0.39382   Biso      1.000     C          -0.215689           
         C81       1.0000    0.91320   0.31274   0.42596   Biso      1.000     C          -0.079843           
         C82       1.0000    0.55937   0.58912   0.72874   Biso      1.000     C          -0.221147           
         C83       1.0000    0.71189   0.91088   0.72874   Biso      1.000     C          -0.207237           
         C84       1.0000    0.65040   0.94396   0.68924   Biso      1.000     C          -0.083308           
         C85       1.0000    0.66980   0.90016   0.62504   Biso      1.000     C          -0.065199           
         C86       1.0000    0.87481   0.83086   0.79272   Biso      1.000     C          0.271136  
         C87       1.0000    0.89920   0.78694   0.85646   Biso      1.000     C          -0.211561           
         C88       1.0000    0.92654   0.82054   0.89678   Biso      1.000     C          -0.083889           
         C89       1.0000    0.96091   0.93638   0.91760   Biso      1.000     C          0.592799  
         C90       1.0000    0.81342   0.07396   0.07720   Biso      1.000     C          0.584608  
         C91       1.0000    0.70204   0.11834   0.11338   Biso      1.000     C          -0.059014           
         C92       1.0000    0.64724   0.09244   0.18668   Biso      1.000     C          -0.08771  
         C93       1.0000    0.54496   0.13558   0.21950   Biso      1.000     C          -0.212679           
         C94       1.0000    0.49379   0.20508   0.18054   Biso      1.000     C          0.267795  
         C95       1.0000    0.54979   0.22924   0.10618   Biso      1.000     C          -0.209406           
         C96       1.0000    0.65190   0.18726   0.07404   Biso      1.000     C          -0.085805           
         C97       1.0000    0.19500   0.59984   0.87496   Biso      1.000     C          -0.064199           
         C98       1.0000    0.28360   0.55604   0.81076   Biso      1.000     C          -0.082327           
         C99       1.0000    0.35151   0.58912   0.77126   Biso      1.000     C          -0.221772           
         C100      1.0000    0.33247   0.66914   0.79272   Biso      1.000     C          0.270974  
         C101      1.0000    0.24434   0.71306   0.85646   Biso      1.000     C          -0.211628           
         C102      1.0000    0.17668   0.67946   0.89678   Biso      1.000     C          -0.08539  
         C103      1.0000    0.12149   0.56362   0.91760   Biso      1.000     C          0.590652  
         C104      1.0000    0.10938   0.42604   0.07720   Biso      1.000     C          0.584697  
         C105      1.0000    0.18458   0.38166   0.11338   Biso      1.000     C          -0.060591           
         C106      1.0000    0.16608   0.40756   0.18668   Biso      1.000     C          -0.085341           
         C107      1.0000    0.23554   0.36442   0.21950   Biso      1.000     C          -0.211346           
         C108      1.0000    0.32567   0.29492   0.18054   Biso      1.000     C          0.268556  
         C109      1.0000    0.34403   0.27076   0.10618   Biso      1.000     C          -0.210987           
         C110      1.0000    0.27406   0.31274   0.07404   Biso      1.000     C          -0.084458           
         C111      1.0000    0.28811   0.08912   0.27126   Biso      1.000     C          -0.207225           
         C112      1.0000    0.20567   0.16914   0.29272   Biso      1.000     C          0.270073  
         Cu1       1.0000    0.00080   0.93688   0.05220   Biso      1.000     Cu          0.872186  
         Cu2       1.0000    0.94700   0.56312   0.05220   Biso      1.000     Cu          0.870749  
         Cu3       1.0000    0.56232   0.93688   0.44780   Biso      1.000     Cu          0.871603  
         Cu4       1.0000    0.98988   0.56312   0.44780   Biso      1.000     Cu          0.873146  
         Cu5       1.0000    0.99920   0.06312   0.94780   Biso      1.000     Cu          0.872214  
         Cu6       1.0000    0.05300   0.43688   0.94780   Biso      1.000     Cu          0.870733  
         Cu7       1.0000    0.43768   0.06312   0.55220   Biso      1.000     Cu          0.871578  
         Cu8       1.0000    0.01012   0.43688   0.55220   Biso      1.000     Cu          0.8732    
         H1        1.0000    0.36570   0.25000   0.26860   Biso      1.000     H          0.284388  
         H2        1.0000    0.30120   0.05800   0.22980   Biso      1.000     H          0.12695   
         H3        1.0000    0.13090   0.26600   0.37200   Biso      1.000     H          0.12021   
         H4        1.0000    0.23290   0.21000   0.43900   Biso      1.000     H          0.122521  
         H5        1.0000    0.22580   0.95400   0.71360   Biso      1.000     H          0.122842  
         H6        1.0000    0.12730   0.88200   0.76860   Biso      1.000     H          0.120676  
         H7        1.0000    0.29170   0.72580   0.57820   Biso      1.000     H          0.128579  
         H8        1.0000    0.49710   0.23400   0.37200   Biso      1.000     H          0.120763  
         H9        1.0000    0.29990   0.49660   0.29460   Biso      1.000     H          0.122304  
         H10       1.0000    0.46900   0.44200   0.22980   Biso      1.000     H          0.141094  
         H11       1.0000    0.40550   0.00340   0.29460   Biso      1.000     H          0.122431  
         H12       1.0000    0.32810   0.29000   0.43900   Biso      1.000     H          0.123298  
         H13       1.0000    0.06060   0.54600   0.71360   Biso      1.000     H          0.12455   
         H14       1.0000    0.10410   0.61800   0.76860   Biso      1.000     H          0.121386  
         H15       1.0000    0.39320   0.79460   0.52520   Biso      1.000     H          0.124019  
         H16       1.0000    0.71300   0.70540   0.97480   Biso      1.000     H          0.123183  
         H17       1.0000    0.88190   0.29000   0.06100   Biso      1.000     H          0.123489  
         H18       1.0000    0.77790   0.61800   0.73140   Biso      1.000     H          0.12063   
         H19       1.0000    0.88430   0.25000   0.23140   Biso      1.000     H          0.284506  
         H20       1.0000    0.13010   0.77420   0.57820   Biso      1.000     H          0.130186  
         H21       1.0000    0.76890   0.23400   0.12800   Biso      1.000     H          0.121184  
         H22       1.0000    0.58900   0.44200   0.27020   Biso      1.000     H          0.140553  
         H23       1.0000    0.70350   0.49660   0.20540   Biso      1.000     H          0.120768  
         H24       1.0000    0.31220   0.79460   0.97480   Biso      1.000     H          0.125107  
         H25       1.0000    0.48250   0.72580   0.92180   Biso      1.000     H          0.127079  
         H26       1.0000    0.49070   0.88200   0.73140   Biso      1.000     H          0.12254   
         H27       1.0000    0.32020   0.95400   0.78640   Biso      1.000     H          0.12381   
         H28       1.0000    0.05710   0.21000   0.06100   Biso      1.000     H          0.122053  
         H29       1.0000    0.10310   0.26600   0.12800   Biso      1.000     H          0.121624  
         H30       1.0000    0.14080   0.05800   0.27020   Biso      1.000     H          0.128764  
         H31       1.0000    0.09110   0.00340   0.20540   Biso      1.000     H          0.121925  
         H32       1.0000    0.59570   0.77420   0.92180   Biso      1.000     H          0.127683  
         H33       1.0000    0.08160   0.70540   0.52520   Biso      1.000     H          0.122135  
         H34       1.0000    0.89340   0.54600   0.78640   Biso      1.000     H          0.123677  
         H35       1.0000    0.85920   0.94200   0.72980   Biso      1.000     H          0.128766  
         H36       1.0000    0.60680   0.20540   0.47480   Biso      1.000     H          0.124018  
         H37       1.0000    0.70010   0.50340   0.70540   Biso      1.000     H          0.122314  
         H38       1.0000    0.53100   0.55800   0.77020   Biso      1.000     H          0.141098  
         H39       1.0000    0.50290   0.76600   0.62800   Biso      1.000     H          0.120763  
         H40       1.0000    0.67190   0.71000   0.56100   Biso      1.000     H          0.1233    
         H41       1.0000    0.93940   0.45400   0.28640   Biso      1.000     H          0.124557  
         H42       1.0000    0.89590   0.38200   0.23140   Biso      1.000     H          0.121387  
         H43       1.0000    0.70830   0.27420   0.42180   Biso      1.000     H          0.128582  
         H44       1.0000    0.86990   0.22580   0.42180   Biso      1.000     H          0.130192  
         H45       1.0000    0.11810   0.26380   0.25000   Biso      1.000     H          0.284614  
         H46       1.0000    0.63190   0.23620   0.25000   Biso      1.000     H          0.284384  
         H47       1.0000    0.88190   0.73620   0.75000   Biso      1.000     H          0.284614  
         H48       1.0000    0.36810   0.76380   0.75000   Biso      1.000     H          0.284384  
         H49       1.0000    0.63430   0.75000   0.73140   Biso      1.000     H          0.284388  
         H50       1.0000    0.11570   0.75000   0.76860   Biso      1.000     H          0.284505  
         H51       1.0000    0.90890   0.99660   0.79460   Biso      1.000     H          0.12194   
         H52       1.0000    0.91840   0.29460   0.47480   Biso      1.000     H          0.122144  
         H53       1.0000    0.77420   0.04600   0.28640   Biso      1.000     H          0.122839  
         H54       1.0000    0.87270   0.11800   0.23140   Biso      1.000     H          0.120676  
         H55       1.0000    0.41100   0.55800   0.72980   Biso      1.000     H          0.140554  
         H56       1.0000    0.67980   0.04600   0.21360   Biso      1.000     H          0.123811  
         H57       1.0000    0.50930   0.11800   0.26860   Biso      1.000     H          0.122539  
         H58       1.0000    0.51750   0.27420   0.07820   Biso      1.000     H          0.127078  
         H59       1.0000    0.68780   0.20540   0.02520   Biso      1.000     H          0.125113  
         H60       1.0000    0.29650   0.50340   0.79460   Biso      1.000     H          0.120758  
         H61       1.0000    0.76710   0.79000   0.56100   Biso      1.000     H          0.122524  
         H62       1.0000    0.94290   0.79000   0.93900   Biso      1.000     H          0.122055  
         H63       1.0000    0.23110   0.76600   0.87200   Biso      1.000     H          0.121184  
         H64       1.0000    0.10660   0.45400   0.21360   Biso      1.000     H          0.123682  
         H65       1.0000    0.22210   0.38200   0.26860   Biso      1.000     H          0.120632  
         H66       1.0000    0.40430   0.22580   0.07820   Biso      1.000     H          0.127679  
         H67       1.0000    0.28700   0.29460   0.02520   Biso      1.000     H          0.123166  
         H68       1.0000    0.59450   0.99660   0.70540   Biso      1.000     H          0.122416  
         H69       1.0000    0.69880   0.94200   0.77020   Biso      1.000     H          0.126944  
         H70       1.0000    0.86910   0.73400   0.62800   Biso      1.000     H          0.120211  
         H71       1.0000    0.11810   0.71000   0.93900   Biso      1.000     H          0.123488  
         H72       1.0000    0.89690   0.73400   0.87200   Biso      1.000     H          0.121624  
         N1        1.0000    0.39132   0.25000   0.21736   Biso      1.000     N          -0.393769           
         N2        1.0000    0.14132   0.75000   0.71736   Biso      1.000     N          -0.394861           
         N3        1.0000    0.85868   0.25000   0.28264   Biso      1.000     N          -0.394861           
         N4        1.0000    0.60868   0.75000   0.78264   Biso      1.000     N          -0.393769           
         N5        1.0000    0.14582   0.20836   0.25000   Biso      1.000     N          -0.39967  
         N6        1.0000    0.85418   0.79164   0.75000   Biso      1.000     N          -0.39967  
         N7        1.0000    0.39582   0.70836   0.75000   Biso      1.000     N          -0.399379           
         N8        1.0000    0.60418   0.29164   0.25000   Biso      1.000     N          -0.399379           
         O1        1.0000    0.86632   0.49644   0.61072   Biso      1.000     O          -0.537741           
         O2        1.0000    0.98321   0.39026   0.48312   Biso      1.000     O          -0.551608           
         O3        1.0000    0.63896   0.00442   0.39166   Biso      1.000     O          -0.52634  
         O4        1.0000    0.62942   0.89718   0.52098   Biso      1.000     O          -0.544289           
         O5        1.0000    0.52296   0.00356   0.61072   Biso      1.000     O          -0.536256           
         O6        1.0000    0.53367   0.10974   0.48312   Biso      1.000     O          -0.549892           
         O7        1.0000    0.03062   0.50442   0.60834   Biso      1.000     O          -0.528035           
         O8        1.0000    0.04758   0.60282   0.97902   Biso      1.000     O          -0.544941           
         O9        1.0000    0.13724   0.49644   0.88928   Biso      1.000     O          -0.536576           
         O10       1.0000    0.12653   0.39026   0.01688   Biso      1.000     O          -0.548862           
         O11       1.0000    0.85662   0.00442   0.10834   Biso      1.000     O          -0.52675  
         O12       1.0000    0.97340   0.89718   0.97902   Biso      1.000     O          -0.545047           
         O13       1.0000    0.97348   0.00356   0.88928   Biso      1.000     O          -0.538645           
         O14       1.0000    0.85659   0.10974   0.01688   Biso      1.000     O          -0.549292           
         O15       1.0000    0.03504   0.49558   0.10834   Biso      1.000     O          -0.526252           
         O16       1.0000    0.15040   0.39718   0.47902   Biso      1.000     O          -0.545032           
         O17       1.0000    0.01679   0.60974   0.51688   Biso      1.000     O          -0.551616           
         O18       1.0000    0.36104   0.99558   0.60834   Biso      1.000     O          -0.526347           
         O19       1.0000    0.37058   0.10282   0.47902   Biso      1.000     O          -0.544295           
         O20       1.0000    0.47704   0.99644   0.38928   Biso      1.000     O          -0.536251           
         O21       1.0000    0.46633   0.89026   0.51688   Biso      1.000     O          -0.549889           
         O22       1.0000    0.96496   0.50442   0.89166   Biso      1.000     O          -0.526243           
         O23       1.0000    0.95242   0.39718   0.02098   Biso      1.000     O          -0.544932           
         O24       1.0000    0.86276   0.50356   0.11072   Biso      1.000     O          -0.536588           
         O25       1.0000    0.87347   0.60974   0.98312   Biso      1.000     O          -0.548873           
         O26       1.0000    0.14338   0.99558   0.89166   Biso      1.000     O          -0.526753           
         O27       1.0000    0.02660   0.10282   0.02098   Biso      1.000     O          -0.545049           
         O28       1.0000    0.02652   0.99644   0.11072   Biso      1.000     O          -0.538639           
         O29       1.0000    0.14341   0.89026   0.98312   Biso      1.000     O          -0.549288           
         O30       1.0000    0.84960   0.60282   0.52098   Biso      1.000     O          -0.545043           
         O31       1.0000    0.13368   0.50356   0.38928   Biso      1.000     O          -0.537752           
         O32       1.0000    0.96938   0.49558   0.39166   Biso      1.000     O          -0.528047 