
##########################################################################
#               Crystallographic Information Format file
#               Produced by PyCifRW module
#
#  This is a CIF file.  CIF has been adopted by the International
#  Union of Crystallography as the standard for data archiving and
#  transmission.
#
#  For information on this file format, follow the CIF links at
#  http://www.iucr.org
##########################################################################

data_image0

_cell_length_a                          14.268
_cell_length_b                          15.721
_cell_length_c                          16.017
_cell_angle_alpha                       90
_cell_angle_beta                        90
_cell_angle_gamma                       90
_symmetry_space_group_name_H-M          'P 1'
_symmetry_int_tables_number             1
loop_
  _symmetry_equiv_pos_as_xyz
         'x, y, z' 
loop_
  _atom_site_label
  _atom_site_occupancy
  _atom_site_fract_x
  _atom_site_fract_y
  _atom_site_fract_z
  _atom_site_thermal_displace_type
  _atom_site_B_iso_or_equiv
  _atom_site_type_symbol
  _atom_site_charge
         C1        1.0000    0.94860   0.53900   0.14250   Biso      1.000     C          0.607388  
         C2        1.0000    0.68780   0.87560   0.98450   Biso      1.000     C          0.541267  
         C3        1.0000    0.77360   0.73050   0.96620   Biso      1.000     C          -0.019267           
         C4        1.0000    0.76750   0.81640   0.98520   Biso      1.000     C          -0.018782           
         C5        1.0000    0.90950   0.77580   0.00390   Biso      1.000     C          0.198688  
         C6        1.0000    0.57470   0.52080   0.35930   Biso      1.000     C          0.61461   
         C7        1.0000    0.50060   0.52170   0.29370   Biso      1.000     C          -0.027327           
         C8        1.0000    0.94860   0.53900   0.35750   Biso      1.000     C          0.607388  
         C9        1.0000    0.70130   0.66800   0.94250   Biso      1.000     C          0.549862  
         C10       1.0000    0.00830   0.49620   0.29350   Biso      1.000     C          -0.035086           
         C11       1.0000    0.18780   0.62440   0.51550   Biso      1.000     C          0.541268  
         C12       1.0000    0.27360   0.76950   0.53380   Biso      1.000     C          -0.019267           
         C13       1.0000    0.26750   0.68360   0.51480   Biso      1.000     C          -0.018782           
         C14       1.0000    0.40950   0.72420   0.49610   Biso      1.000     C          0.198688  
         C15       1.0000    0.92530   0.02080   0.64070   Biso      1.000     C          0.61461   
         C16       1.0000    0.99940   0.02170   0.70630   Biso      1.000     C          -0.027327           
         C17       1.0000    0.55140   0.03900   0.64250   Biso      1.000     C          0.607388  
         C18       1.0000    0.20130   0.83200   0.55750   Biso      1.000     C          0.549862  
         C19       1.0000    0.49170   0.99620   0.70650   Biso      1.000     C          -0.035086           
         C20       1.0000    0.50830   0.00380   0.20650   Biso      1.000     C          -0.035086           
         C21       1.0000    0.00060   0.97830   0.20630   Biso      1.000     C          -0.027327           
         C22       1.0000    0.50830   0.00380   0.29350   Biso      1.000     C          -0.035084           
         C23       1.0000    0.70130   0.66800   0.55750   Biso      1.000     C          0.549861  
         C24       1.0000    0.68780   0.87560   0.51550   Biso      1.000     C          0.541268  
         C25       1.0000    0.77360   0.73050   0.53380   Biso      1.000     C          -0.019266           
         C26       1.0000    0.76750   0.81640   0.51480   Biso      1.000     C          -0.018783           
         C27       1.0000    0.90950   0.77580   0.49610   Biso      1.000     C          0.198688  
         C28       1.0000    0.42530   0.47920   0.85930   Biso      1.000     C          0.61461   
         C29       1.0000    0.44860   0.96100   0.14250   Biso      1.000     C          0.607388  
         C30       1.0000    0.49940   0.47830   0.79370   Biso      1.000     C          -0.027327           
         C31       1.0000    0.99170   0.50380   0.79350   Biso      1.000     C          -0.035086           
         C32       1.0000    0.79870   0.16800   0.05750   Biso      1.000     C          0.549861  
         C33       1.0000    0.81220   0.37560   0.01550   Biso      1.000     C          0.541269  
         C34       1.0000    0.72640   0.23050   0.03380   Biso      1.000     C          -0.019266           
         C35       1.0000    0.73250   0.31640   0.01480   Biso      1.000     C          -0.018782           
         C36       1.0000    0.59050   0.27580   0.99610   Biso      1.000     C          0.198688  
         C37       1.0000    0.07470   0.97920   0.14070   Biso      1.000     C          0.61461   
         C38       1.0000    0.05140   0.46100   0.85750   Biso      1.000     C          0.607388  
         C39       1.0000    0.29870   0.33200   0.44250   Biso      1.000     C          0.549861  
         C40       1.0000    0.31220   0.12440   0.48450   Biso      1.000     C          0.541269  
         C41       1.0000    0.22640   0.26950   0.46620   Biso      1.000     C          -0.019266           
         C42       1.0000    0.40950   0.72420   0.00390   Biso      1.000     C          0.198688  
         C43       1.0000    0.26750   0.68360   0.98520   Biso      1.000     C          -0.018783           
         C44       1.0000    0.27360   0.76950   0.96620   Biso      1.000     C          -0.019266           
         C45       1.0000    0.18780   0.62440   0.98450   Biso      1.000     C          0.541269  
         C46       1.0000    0.20130   0.83200   0.94250   Biso      1.000     C          0.549861  
         C47       1.0000    0.00830   0.49620   0.20650   Biso      1.000     C          -0.035084           
         C48       1.0000    0.50060   0.52170   0.20630   Biso      1.000     C          -0.027327           
         C49       1.0000    0.92530   0.02080   0.85930   Biso      1.000     C          0.61461   
         C50       1.0000    0.57470   0.52080   0.14070   Biso      1.000     C          0.61461   
         C51       1.0000    0.14000   0.02050   0.75000   Biso      1.000     C          0.179008  
         C52       1.0000    0.12310   0.42060   0.25000   Biso      1.000     C          0.17202   
         C53       1.0000    0.36000   0.52050   0.25000   Biso      1.000     C          0.179008  
         C54       1.0000    0.62310   0.07940   0.25000   Biso      1.000     C          0.17202   
         C55       1.0000    0.86000   0.97950   0.25000   Biso      1.000     C          0.179008  
         C56       1.0000    0.87690   0.57940   0.75000   Biso      1.000     C          0.17202   
         C57       1.0000    0.64000   0.47950   0.75000   Biso      1.000     C          0.179008  
         C58       1.0000    0.37690   0.92060   0.75000   Biso      1.000     C          0.17202   
         C59       1.0000    0.99940   0.02170   0.79370   Biso      1.000     C          -0.027327           
         C60       1.0000    0.55140   0.03900   0.85750   Biso      1.000     C          0.607388  
         C61       1.0000    0.49170   0.99620   0.79350   Biso      1.000     C          -0.035084           
         C62       1.0000    0.23250   0.18360   0.48520   Biso      1.000     C          -0.018782           
         C63       1.0000    0.09050   0.22420   0.50390   Biso      1.000     C          0.198689  
         C64       1.0000    0.07470   0.97920   0.35930   Biso      1.000     C          0.61461   
         C65       1.0000    0.59050   0.27580   0.50390   Biso      1.000     C          0.198688  
         C66       1.0000    0.73250   0.31640   0.48520   Biso      1.000     C          -0.018783           
         C67       1.0000    0.72640   0.23050   0.46620   Biso      1.000     C          -0.019266           
         C68       1.0000    0.81220   0.37560   0.48450   Biso      1.000     C          0.541268  
         C69       1.0000    0.79870   0.16800   0.44250   Biso      1.000     C          0.549862  
         C70       1.0000    0.99170   0.50380   0.70650   Biso      1.000     C          -0.035084           
         C71       1.0000    0.05140   0.46100   0.64250   Biso      1.000     C          0.607388  
         C72       1.0000    0.49940   0.47830   0.70630   Biso      1.000     C          -0.027327           
         C73       1.0000    0.42530   0.47920   0.64070   Biso      1.000     C          0.61461   
         C74       1.0000    0.09050   0.22420   0.99610   Biso      1.000     C          0.198688  
         C75       1.0000    0.23250   0.18360   0.01480   Biso      1.000     C          -0.018782           
         C76       1.0000    0.22640   0.26950   0.03380   Biso      1.000     C          -0.019267           
         C77       1.0000    0.31220   0.12440   0.01550   Biso      1.000     C          0.541268  
         C78       1.0000    0.29870   0.33200   0.05750   Biso      1.000     C          0.549861  
         C79       1.0000    0.44860   0.96100   0.35750   Biso      1.000     C          0.607388  
         C80       1.0000    0.00060   0.97830   0.29370   Biso      1.000     C          -0.027327           
         Cd1       1.0000    0.12518   0.01931   0.54364   Biso      1.000     Cd          0.925379  
         Cd2       1.0000    0.37482   0.51931   0.04364   Biso      1.000     Cd          0.925378  
         Cd3       1.0000    0.76358   0.53685   0.25000   Biso      1.000     Cd          1.16166   
         Cd4       1.0000    0.26358   0.96315   0.25000   Biso      1.000     Cd          1.16166   
         Cd5       1.0000    0.23642   0.46315   0.75000   Biso      1.000     Cd          1.16166   
         Cd6       1.0000    0.39416   0.93485   0.95913   Biso      1.000     Cd          0.940967  
         Cd7       1.0000    0.12518   0.01931   0.95636   Biso      1.000     Cd          0.925378  
         Cd8       1.0000    0.89416   0.56515   0.54087   Biso      1.000     Cd          0.940967  
         Cd9       1.0000    0.62518   0.48069   0.54364   Biso      1.000     Cd          0.925379  
         Cd10      1.0000    0.60584   0.06515   0.45913   Biso      1.000     Cd          0.940967  
         Cd11      1.0000    0.87482   0.98069   0.45636   Biso      1.000     Cd          0.925379  
         Cd12      1.0000    0.89416   0.56515   0.95913   Biso      1.000     Cd          0.940968  
         Cd13      1.0000    0.62518   0.48069   0.95636   Biso      1.000     Cd          0.925379  
         Cd14      1.0000    0.60584   0.06515   0.04087   Biso      1.000     Cd          0.940967  
         Cd15      1.0000    0.87482   0.98069   0.04364   Biso      1.000     Cd          0.925378  
         Cd16      1.0000    0.10584   0.43485   0.45913   Biso      1.000     Cd          0.940967  
         Cd17      1.0000    0.37482   0.51931   0.45636   Biso      1.000     Cd          0.925378  
         Cd18      1.0000    0.39416   0.93485   0.54087   Biso      1.000     Cd          0.940967  
         Cd19      1.0000    0.73642   0.03685   0.75000   Biso      1.000     Cd          1.16166   
         Cd20      1.0000    0.10584   0.43485   0.04087   Biso      1.000     Cd          0.940967  
         H1        1.0000    0.70520   0.48120   0.75000   Biso      1.000     H          0.084391  
         H2        1.0000    0.82440   0.61450   0.75000   Biso      1.000     H          0.091389  
         H3        1.0000    0.02690   0.22300   0.51630   Biso      1.000     H          0.09895   
         H4        1.0000    0.79480   0.98120   0.25000   Biso      1.000     H          0.08439   
         H5        1.0000    0.67560   0.11450   0.25000   Biso      1.000     H          0.091389  
         H6        1.0000    0.29480   0.51880   0.25000   Biso      1.000     H          0.084391  
         H7        1.0000    0.17560   0.38550   0.25000   Biso      1.000     H          0.091389  
         H8        1.0000    0.20520   0.01880   0.75000   Biso      1.000     H          0.084391  
         H9        1.0000    0.47310   0.72300   0.01630   Biso      1.000     H          0.09895   
         H10       1.0000    0.32440   0.88550   0.75000   Biso      1.000     H          0.091389  
         H11       1.0000    0.52690   0.27700   0.51630   Biso      1.000     H          0.09895   
         H12       1.0000    0.97310   0.77700   0.48370   Biso      1.000     H          0.09895   
         H13       1.0000    0.52690   0.27700   0.98370   Biso      1.000     H          0.09895   
         H14       1.0000    0.97310   0.77700   0.01630   Biso      1.000     H          0.09895   
         H15       1.0000    0.47310   0.72300   0.48370   Biso      1.000     H          0.09895   
         H16       1.0000    0.02690   0.22300   0.98370   Biso      1.000     H          0.09895   
         N1        1.0000    0.59040   0.47820   0.68040   Biso      1.000     N          -0.32483  
         N2        1.0000    0.90960   0.97820   0.31960   Biso      1.000     N          -0.32483  
         N3        1.0000    0.58240   0.05220   0.32020   Biso      1.000     N          -0.32397  
         N4        1.0000    0.63610   0.20510   0.47930   Biso      1.000     N          -0.321025           
         N5        1.0000    0.64570   0.34420   0.50850   Biso      1.000     N          -0.323657           
         N6        1.0000    0.91760   0.55220   0.67980   Biso      1.000     N          -0.32397  
         N7        1.0000    0.08240   0.44780   0.17980   Biso      1.000     N          -0.32397  
         N8        1.0000    0.14570   0.15580   0.99150   Biso      1.000     N          -0.323657           
         N9        1.0000    0.09040   0.02180   0.81960   Biso      1.000     N          -0.32483  
         N10       1.0000    0.41760   0.94780   0.82020   Biso      1.000     N          -0.32397  
         N11       1.0000    0.36390   0.79490   0.97930   Biso      1.000     N          -0.321025           
         N12       1.0000    0.35430   0.65580   0.00850   Biso      1.000     N          -0.323657           
         N13       1.0000    0.85430   0.84420   0.49150   Biso      1.000     N          -0.323657           
         N14       1.0000    0.13610   0.29490   0.02070   Biso      1.000     N          -0.321025           
         N15       1.0000    0.86390   0.70510   0.52070   Biso      1.000     N          -0.321025           
         N16       1.0000    0.40960   0.52180   0.18040   Biso      1.000     N          -0.32483  
         N17       1.0000    0.59040   0.47820   0.81960   Biso      1.000     N          -0.324831           
         N18       1.0000    0.91760   0.55220   0.82020   Biso      1.000     N          -0.32397  
         N19       1.0000    0.14570   0.15580   0.50850   Biso      1.000     N          -0.323657           
         N20       1.0000    0.09040   0.02180   0.68040   Biso      1.000     N          -0.32483  
         N21       1.0000    0.41760   0.94780   0.67980   Biso      1.000     N          -0.32397  
         N22       1.0000    0.36390   0.79490   0.52070   Biso      1.000     N          -0.321025           
         N23       1.0000    0.35430   0.65580   0.49150   Biso      1.000     N          -0.323657           
         N24       1.0000    0.40960   0.52180   0.31960   Biso      1.000     N          -0.324831           
         N25       1.0000    0.13610   0.29490   0.47930   Biso      1.000     N          -0.321025           
         N26       1.0000    0.86390   0.70510   0.97930   Biso      1.000     N          -0.321025           
         N27       1.0000    0.85430   0.84420   0.00850   Biso      1.000     N          -0.323657           
         N28       1.0000    0.90960   0.97820   0.18040   Biso      1.000     N          -0.32483  
         N29       1.0000    0.58240   0.05220   0.17980   Biso      1.000     N          -0.32397  
         N30       1.0000    0.63610   0.20510   0.02070   Biso      1.000     N          -0.321025           
         N31       1.0000    0.08240   0.44780   0.32020   Biso      1.000     N          -0.32397  
         N32       1.0000    0.64570   0.34420   0.99150   Biso      1.000     N          -0.323657           
         O1        1.0000    0.34200   0.49140   0.65560   Biso      1.000     O          -0.586289           
         O2        1.0000    0.79870   0.44810   0.51130   Biso      1.000     O          -0.498312           
         O3        1.0000    0.89210   0.34930   0.45640   Biso      1.000     O          -0.328453           
         O4        1.0000    0.88160   0.19430   0.43090   Biso      1.000     O          -0.348828           
         O5        1.0000    0.77450   0.09290   0.43680   Biso      1.000     O          -0.509802           
         O6        1.0000    0.37130   0.93000   0.34270   Biso      1.000     O          -0.576404           
         O7        1.0000    0.04470   0.97080   0.43290   Biso      1.000     O          -0.542451           
         O8        1.0000    0.15800   0.99140   0.34440   Biso      1.000     O          -0.586289           
         O9        1.0000    0.70130   0.94810   0.48870   Biso      1.000     O          -0.498312           
         O10       1.0000    0.60790   0.84930   0.54360   Biso      1.000     O          -0.328453           
         O11       1.0000    0.61840   0.69430   0.56910   Biso      1.000     O          -0.348828           
         O12       1.0000    0.45530   0.47080   0.56710   Biso      1.000     O          -0.542451           
         O13       1.0000    0.48440   0.96000   0.42910   Biso      1.000     O          -0.536864           
         O14       1.0000    0.01560   0.46000   0.57090   Biso      1.000     O          -0.536864           
         O15       1.0000    0.95530   0.02920   0.93290   Biso      1.000     O          -0.542451           
         O16       1.0000    0.27450   0.40710   0.06320   Biso      1.000     O          -0.509802           
         O17       1.0000    0.38160   0.30570   0.06910   Biso      1.000     O          -0.348827           
         O18       1.0000    0.39210   0.15070   0.04360   Biso      1.000     O          -0.328454           
         O19       1.0000    0.29870   0.05190   0.98870   Biso      1.000     O          -0.498313           
         O20       1.0000    0.84200   0.00860   0.84440   Biso      1.000     O          -0.586289           
         O21       1.0000    0.72550   0.59290   0.56320   Biso      1.000     O          -0.509802           
         O22       1.0000    0.51560   0.04000   0.92910   Biso      1.000     O          -0.536864           
         O23       1.0000    0.62870   0.07000   0.84270   Biso      1.000     O          -0.576404           
         O24       1.0000    0.22550   0.90710   0.93680   Biso      1.000     O          -0.509802           
         O25       1.0000    0.11840   0.80570   0.93090   Biso      1.000     O          -0.348826           
         O26       1.0000    0.10790   0.65070   0.95640   Biso      1.000     O          -0.328455           
         O27       1.0000    0.20130   0.55190   0.01130   Biso      1.000     O          -0.498313           
         O28       1.0000    0.65800   0.50860   0.15560   Biso      1.000     O          -0.586289           
         O29       1.0000    0.54470   0.52920   0.06710   Biso      1.000     O          -0.542451           
         O30       1.0000    0.12870   0.43000   0.65730   Biso      1.000     O          -0.576404           
         O31       1.0000    0.12870   0.43000   0.84270   Biso      1.000     O          -0.576404           
         O32       1.0000    0.37130   0.93000   0.15730   Biso      1.000     O          -0.576404           
         O33       1.0000    0.45530   0.47080   0.93290   Biso      1.000     O          -0.542451           
         O34       1.0000    0.98440   0.54000   0.07090   Biso      1.000     O          -0.536864           
         O35       1.0000    0.27450   0.40710   0.43680   Biso      1.000     O          -0.509802           
         O36       1.0000    0.38160   0.30570   0.43090   Biso      1.000     O          -0.348826           
         O37       1.0000    0.39210   0.15070   0.45640   Biso      1.000     O          -0.328455           
         O38       1.0000    0.29870   0.05190   0.51130   Biso      1.000     O          -0.498313           
         O39       1.0000    0.84200   0.00860   0.65560   Biso      1.000     O          -0.586289           
         O40       1.0000    0.95530   0.02920   0.56710   Biso      1.000     O          -0.542451           
         O41       1.0000    0.51560   0.04000   0.57090   Biso      1.000     O          -0.536864           
         O42       1.0000    0.62870   0.07000   0.65730   Biso      1.000     O          -0.576404           
         O43       1.0000    0.22550   0.90710   0.56320   Biso      1.000     O          -0.509802           
         O44       1.0000    0.11840   0.80570   0.56910   Biso      1.000     O          -0.348829           
         O45       1.0000    0.10790   0.65070   0.54360   Biso      1.000     O          -0.328452           
         O46       1.0000    0.20130   0.55190   0.48870   Biso      1.000     O          -0.498313           
         O47       1.0000    0.65800   0.50860   0.34440   Biso      1.000     O          -0.586289           
         O48       1.0000    0.54470   0.52920   0.43290   Biso      1.000     O          -0.542451           
         O49       1.0000    0.98440   0.54000   0.42910   Biso      1.000     O          -0.536864           
         O50       1.0000    0.87130   0.57000   0.34270   Biso      1.000     O          -0.576404           
         O51       1.0000    0.72550   0.59290   0.93680   Biso      1.000     O          -0.509802           
         O52       1.0000    0.61840   0.69430   0.93090   Biso      1.000     O          -0.348829           
         O53       1.0000    0.60790   0.84930   0.95640   Biso      1.000     O          -0.328452           
         O54       1.0000    0.70130   0.94810   0.01130   Biso      1.000     O          -0.498313           
         O55       1.0000    0.15800   0.99140   0.15560   Biso      1.000     O          -0.586289           
         O56       1.0000    0.04470   0.97080   0.06710   Biso      1.000     O          -0.542451           
         O57       1.0000    0.48440   0.96000   0.07090   Biso      1.000     O          -0.536864           
         O58       1.0000    0.77450   0.09290   0.06320   Biso      1.000     O          -0.509802           
         O59       1.0000    0.88160   0.19430   0.06910   Biso      1.000     O          -0.348826           
         O60       1.0000    0.89210   0.34930   0.04360   Biso      1.000     O          -0.328455           
         O61       1.0000    0.79870   0.44810   0.98870   Biso      1.000     O          -0.498313           
         O62       1.0000    0.34200   0.49140   0.84440   Biso      1.000     O          -0.586289           
         O63       1.0000    0.01560   0.46000   0.92910   Biso      1.000     O          -0.536864           
         O64       1.0000    0.87130   0.57000   0.15730   Biso      1.000     O          -0.576404 