
##########################################################################
#               Crystallographic Information Format file
#               Produced by PyCifRW module
#
#  This is a CIF file.  CIF has been adopted by the International
#  Union of Crystallography as the standard for data archiving and
#  transmission.
#
#  For information on this file format, follow the CIF links at
#  http://www.iucr.org
##########################################################################

data_image0

_cell_length_a                          10.3131
_cell_length_b                          10.3131
_cell_length_c                          14.495
_cell_angle_alpha                       90
_cell_angle_beta                        90
_cell_angle_gamma                       90
_symmetry_space_group_name_H-M          'P 1'
_symmetry_int_tables_number             1
loop_
  _symmetry_equiv_pos_as_xyz
         'x, y, z' 
loop_
  _atom_site_label
  _atom_site_occupancy
  _atom_site_fract_x
  _atom_site_fract_y
  _atom_site_fract_z
  _atom_site_thermal_displace_type
  _atom_site_B_iso_or_equiv
  _atom_site_type_symbol
  _atom_site_charge
         C1        1.0000    0.89440   0.45200   0.32560   Biso      1.000     C          -0.103678           
         C2        1.0000    0.45550   0.76100   0.42270   Biso      1.000     C          -0.027856           
         C3        1.0000    0.41030   0.68380   0.34000   Biso      1.000     C          0.69265   
         C4        1.0000    0.89440   0.54800   0.17440   Biso      1.000     C          -0.103678           
         C5        1.0000    0.76100   0.54450   0.17270   Biso      1.000     C          -0.027856           
         C6        1.0000    0.68380   0.58970   0.09000   Biso      1.000     C          0.692649  
         C7        1.0000    0.10560   0.45200   0.67440   Biso      1.000     C          -0.103678           
         C8        1.0000    0.45200   0.89440   0.42440   Biso      1.000     C          -0.103679           
         C9        1.0000    0.23900   0.45550   0.67270   Biso      1.000     C          -0.027857           
         C10       1.0000    0.45200   0.10560   0.07560   Biso      1.000     C          -0.103678           
         C11       1.0000    0.45550   0.23900   0.07730   Biso      1.000     C          -0.027856           
         C12       1.0000    0.41030   0.31620   0.16000   Biso      1.000     C          0.69265   
         C13       1.0000    0.54800   0.89440   0.57560   Biso      1.000     C          -0.103678           
         C14       1.0000    0.54450   0.76100   0.57730   Biso      1.000     C          -0.027857           
         C15       1.0000    0.58970   0.68380   0.66000   Biso      1.000     C          0.69265   
         C16       1.0000    0.31620   0.41030   0.59000   Biso      1.000     C          0.69265   
         C17       1.0000    0.58970   0.31620   0.84000   Biso      1.000     C          0.69265   
         C18       1.0000    0.54450   0.23900   0.92270   Biso      1.000     C          -0.027856           
         C19       1.0000    0.54800   0.10560   0.92440   Biso      1.000     C          -0.103679           
         C20       1.0000    0.30790   0.50000   0.75000   Biso      1.000     C          -0.11382  
         C21       1.0000    0.03770   0.50000   0.75000   Biso      1.000     C          -0.031377           
         C22       1.0000    0.89250   0.50000   0.75000   Biso      1.000     C          0.697228  
         C23       1.0000    0.69210   0.50000   0.25000   Biso      1.000     C          -0.11382  
         C24       1.0000    0.96230   0.50000   0.25000   Biso      1.000     C          -0.031377           
         C25       1.0000    0.10750   0.50000   0.25000   Biso      1.000     C          0.697228  
         C26       1.0000    0.50000   0.69210   0.50000   Biso      1.000     C          -0.11382  
         C27       1.0000    0.50000   0.96230   0.50000   Biso      1.000     C          -0.031377           
         C28       1.0000    0.50000   0.10750   0.50000   Biso      1.000     C          0.697228  
         C29       1.0000    0.50000   0.30790   0.00000   Biso      1.000     C          -0.11382  
         C30       1.0000    0.50000   0.03770   0.00000   Biso      1.000     C          -0.031377           
         C31       1.0000    0.50000   0.89250   0.00000   Biso      1.000     C          0.697228  
         C32       1.0000    0.68380   0.41030   0.41000   Biso      1.000     C          0.69265   
         C33       1.0000    0.76100   0.45550   0.32730   Biso      1.000     C          -0.027857           
         C34       1.0000    0.31620   0.58970   0.91000   Biso      1.000     C          0.69265   
         C35       1.0000    0.10560   0.54800   0.82560   Biso      1.000     C          -0.103679           
         C36       1.0000    0.23900   0.54450   0.82730   Biso      1.000     C          -0.027857           
         Dy1       1.0000    0.64911   0.64911   0.87500   Biso      1.000     Dy          2.222099  
         Dy2       1.0000    0.64911   0.35089   0.62500   Biso      1.000     Dy          2.222099  
         Dy3       1.0000    0.35089   0.35089   0.37500   Biso      1.000     Dy          2.222099  
         Dy4       1.0000    0.35089   0.64911   0.12500   Biso      1.000     Dy          2.222099  
         H1        1.0000    0.58270   0.06050   0.87470   Biso      1.000     H          0.131487  
         H2        1.0000    0.41730   0.93950   0.37470   Biso      1.000     H          0.131487  
         H3        1.0000    0.06050   0.41730   0.62470   Biso      1.000     H          0.131487  
         H4        1.0000    0.41730   0.06050   0.12530   Biso      1.000     H          0.131487  
         H5        1.0000    0.93950   0.58270   0.12470   Biso      1.000     H          0.131487  
         H6        1.0000    0.06050   0.58270   0.87530   Biso      1.000     H          0.131487  
         H7        1.0000    0.93950   0.41730   0.37530   Biso      1.000     H          0.131487  
         H8        1.0000    0.50000   0.39810   0.00000   Biso      1.000     H          0.114425  
         H9        1.0000    0.50000   0.60190   0.50000   Biso      1.000     H          0.114425  
         H10       1.0000    0.60190   0.50000   0.25000   Biso      1.000     H          0.114425  
         H11       1.0000    0.58270   0.93950   0.62530   Biso      1.000     H          0.131487  
         H12       1.0000    0.39810   0.50000   0.75000   Biso      1.000     H          0.114425  
         O1        1.0000    0.61240   0.56900   0.64970   Biso      1.000     O          -0.712726           
         O2        1.0000    0.38760   0.43100   0.14970   Biso      1.000     O          -0.712726           
         O3        1.0000    0.57130   0.16470   0.55890   Biso      1.000     O          -0.716262           
         O4        1.0000    0.59720   0.74280   0.73480   Biso      1.000     O          -0.707891           
         O5        1.0000    0.74280   0.40280   0.48480   Biso      1.000     O          -0.707891           
         O6        1.0000    0.25720   0.59720   0.98480   Biso      1.000     O          -0.707891           
         O7        1.0000    0.43100   0.61240   0.89970   Biso      1.000     O          -0.712726           
         O8        1.0000    0.16470   0.42870   0.30890   Biso      1.000     O          -0.716262           
         O9        1.0000    0.40280   0.25720   0.23480   Biso      1.000     O          -0.707891           
         O10       1.0000    0.83530   0.57130   0.80890   Biso      1.000     O          -0.716262           
         O11       1.0000    0.42870   0.83530   0.05890   Biso      1.000     O          -0.716262           
         O12       1.0000    0.40280   0.74280   0.26520   Biso      1.000     O          -0.707891           
         O13       1.0000    0.25720   0.40280   0.51520   Biso      1.000     O          -0.707891           
         O14       1.0000    0.83530   0.42870   0.69110   Biso      1.000     O          -0.716262           
         O15       1.0000    0.56900   0.61240   0.10030   Biso      1.000     O          -0.712726           
         O16       1.0000    0.74280   0.59720   0.01520   Biso      1.000     O          -0.707891           
         O17       1.0000    0.16470   0.57130   0.19110   Biso      1.000     O          -0.716262           
         O18       1.0000    0.38760   0.56900   0.35030   Biso      1.000     O          -0.712726           
         O19       1.0000    0.42870   0.16470   0.44110   Biso      1.000     O          -0.716262           
         O20       1.0000    0.61240   0.43100   0.85030   Biso      1.000     O          -0.712726           
         O21       1.0000    0.59720   0.25720   0.76520   Biso      1.000     O          -0.707891           
         O22       1.0000    0.57130   0.83530   0.94110   Biso      1.000     O          -0.716262           
         O23       1.0000    0.43100   0.38760   0.60030   Biso      1.000     O          -0.712726           
         O24       1.0000    0.56900   0.38760   0.39970   Biso      1.000     O          -0.712726 