
##########################################################################
#               Crystallographic Information Format file
#               Produced by PyCifRW module
#
#  This is a CIF file.  CIF has been adopted by the International
#  Union of Crystallography as the standard for data archiving and
#  transmission.
#
#  For information on this file format, follow the CIF links at
#  http://www.iucr.org
##########################################################################

data_image0

_cell_length_a                          8.3081
_cell_length_b                          9.1647
_cell_length_c                          9.1839
_cell_angle_alpha                       62.781
_cell_angle_beta                        79.029
_cell_angle_gamma                       87.088
_symmetry_space_group_name_H-M          'P 1'
_symmetry_int_tables_number             1
loop_
  _symmetry_equiv_pos_as_xyz
         'x, y, z' 
loop_
  _atom_site_label
  _atom_site_occupancy
  _atom_site_fract_x
  _atom_site_fract_y
  _atom_site_fract_z
  _atom_site_thermal_displace_type
  _atom_site_B_iso_or_equiv
  _atom_site_type_symbol
  _atom_site_charge
         C1        1.0000    0.85190   0.41340   0.01640   Biso      1.000     C          -0.139727           
         C2        1.0000    0.68420   0.64490   0.02430   Biso      1.000     C          -0.423997           
         C3        1.0000    0.64670   0.01370   0.55560   Biso      1.000     C          -0.139643           
         C4        1.0000    0.52230   0.96230   0.36200   Biso      1.000     C          -0.139898           
         C5        1.0000    0.14810   0.58660   0.98360   Biso      1.000     C          -0.13973  
         C6        1.0000    0.01940   0.36960   0.95230   Biso      1.000     C          -0.139986           
         C7        1.0000    0.80410   0.87660   0.39860   Biso      1.000     C          -0.444661           
         C8        1.0000    0.31580   0.35510   0.97570   Biso      1.000     C          -0.423999           
         C9        1.0000    0.35330   0.98630   0.44440   Biso      1.000     C          -0.139639           
         C10       1.0000    0.47770   0.03770   0.63800   Biso      1.000     C          -0.139894           
         C11       1.0000    0.19590   0.12340   0.60140   Biso      1.000     C          -0.444657           
         C12       1.0000    0.98060   0.63040   0.04770   Biso      1.000     C          -0.13998  
         Fe1       1.0000    0.24056   0.57637   0.42962   Biso      1.000     Fe          1.279513  
         Fe2       1.0000    0.75944   0.42363   0.57038   Biso      1.000     Fe          1.27954   
         H1        1.0000    0.71800   0.97140   0.63710   Biso      1.000     H          0.131774  
         H2        1.0000    0.56700   0.06640   0.27010   Biso      1.000     H          0.125443  
         H3        1.0000    0.51280   0.88630   0.31710   Biso      1.000     H          0.116674  
         H4        1.0000    0.22980   0.61030   0.03330   Biso      1.000     H          0.125745  
         H5        1.0000    0.17640   0.65270   0.86370   Biso      1.000     H          0.118408  
         H6        1.0000    0.04490   0.43110   0.83170   Biso      1.000     H          0.119296  
         H7        1.0000    0.01870   0.25360   0.98200   Biso      1.000     H          0.12159   
         H8        1.0000    0.69360   0.11870   0.46720   Biso      1.000     H          0.121163  
         H9        1.0000    0.85670   0.98480   0.32900   Biso      1.000     H          0.172063  
         H10       1.0000    0.78930   0.83050   0.32540   Biso      1.000     H          0.152416  
         H11       1.0000    0.69480   0.75970   0.99780   Biso      1.000     H          0.164146  
         H12       1.0000    0.61340   0.63820   0.95470   Biso      1.000     H          0.176642  
         H13       1.0000    0.21070   0.16950   0.67460   Biso      1.000     H          0.152414  
         H14       1.0000    0.98130   0.74640   0.01800   Biso      1.000     H          0.121589  
         H15       1.0000    0.95510   0.56890   0.16830   Biso      1.000     H          0.119293  
         H16       1.0000    0.82360   0.34730   0.13630   Biso      1.000     H          0.118405  
         H17       1.0000    0.14330   0.01520   0.67100   Biso      1.000     H          0.172061  
         H18       1.0000    0.48720   0.11370   0.68290   Biso      1.000     H          0.116673  
         H19       1.0000    0.77020   0.38970   0.96670   Biso      1.000     H          0.125744  
         H20       1.0000    0.30520   0.24030   0.00220   Biso      1.000     H          0.164144  
         H21       1.0000    0.28200   0.02860   0.36290   Biso      1.000     H          0.131772  
         H22       1.0000    0.38660   0.36180   0.04530   Biso      1.000     H          0.176642  
         H23       1.0000    0.30640   0.88130   0.53280   Biso      1.000     H          0.121163  
         H24       1.0000    0.43300   0.93360   0.72990   Biso      1.000     H          0.125442  
         N1        1.0000    0.85160   0.59140   0.97450   Biso      1.000     N          0.122262  
         N2        1.0000    0.36270   0.10370   0.51550   Biso      1.000     N          0.1183    
         N3        1.0000    0.14840   0.40860   0.02550   Biso      1.000     N          0.122283  
         N4        1.0000    0.63730   0.89630   0.48450   Biso      1.000     N          0.118299  
         O1        1.0000    0.87260   0.57170   0.62140   Biso      1.000     O          -0.751577           
         O2        1.0000    0.10090   0.76730   0.40850   Biso      1.000     O          -0.725698           
         O3        1.0000    0.29730   0.47690   0.65210   Biso      1.000     O          -0.757887           
         O4        1.0000    0.55800   0.35230   0.74860   Biso      1.000     O          -0.734405           
         O5        1.0000    0.04200   0.19410   0.33900   Biso      1.000     O          -0.688622           
         O6        1.0000    0.51860   0.36800   0.27090   Biso      1.000     O          -0.727608           
         O7        1.0000    0.89910   0.23270   0.59150   Biso      1.000     O          -0.725693           
         O8        1.0000    0.95800   0.80590   0.66100   Biso      1.000     O          -0.688622           
         O9        1.0000    0.70270   0.52310   0.34790   Biso      1.000     O          -0.757879           
         O10       1.0000    0.44200   0.64770   0.25140   Biso      1.000     O          -0.73441  
         O11       1.0000    0.48140   0.63200   0.72910   Biso      1.000     O          -0.727608           
         O12       1.0000    0.12740   0.42830   0.37860   Biso      1.000     O          -0.751595           
         P1        1.0000    0.57926   0.53316   0.24194   Biso      1.000     P          1.31965   
         P2        1.0000    0.05694   0.25198   0.46540   Biso      1.000     P          1.32861   
         P3        1.0000    0.94306   0.74802   0.53460   Biso      1.000     P          1.328607  
         P4        1.0000    0.42074   0.46684   0.75806   Biso      1.000     P          1.319649 