
##########################################################################
#               Crystallographic Information Format file
#               Produced by PyCifRW module
#
#  This is a CIF file.  CIF has been adopted by the International
#  Union of Crystallography as the standard for data archiving and
#  transmission.
#
#  For information on this file format, follow the CIF links at
#  http://www.iucr.org
##########################################################################

data_image0

_cell_length_a                          27.9486
_cell_length_b                          27.9486
_cell_length_c                          6.2302
_cell_angle_alpha                       90
_cell_angle_beta                        90
_cell_angle_gamma                       120
_symmetry_space_group_name_H-M          'P 1'
_symmetry_int_tables_number             1
loop_
  _symmetry_equiv_pos_as_xyz
         'x, y, z' 
loop_
  _atom_site_label
  _atom_site_occupancy
  _atom_site_fract_x
  _atom_site_fract_y
  _atom_site_fract_z
  _atom_site_thermal_displace_type
  _atom_site_B_iso_or_equiv
  _atom_site_type_symbol
  _atom_site_charge
         C1        1.0000    0.77503   0.11987   0.39667   Biso      1.000     C          -0.134267           
         C2        1.0000    0.12297   0.27653   0.34733   Biso      1.000     C          0.022256  
         C3        1.0000    0.45320   0.01150   0.27000   Biso      1.000     C          -0.119618           
         C4        1.0000    0.48200   0.03870   0.91600   Biso      1.000     C          0.060926  
         C5        1.0000    0.45630   0.94320   0.01400   Biso      1.000     C          0.021784  
         C6        1.0000    0.89003   0.18467   0.58267   Biso      1.000     C          0.060258000000000006          
         C7        1.0000    0.77663   0.14867   0.75067   Biso      1.000     C          0.051951  
         C8        1.0000    0.84643   0.12297   0.65267   Biso      1.000     C          0.02555   
         C9        1.0000    0.10837   0.78653   0.06333   Biso      1.000     C          -0.134371           
         C10       1.0000    0.10997   0.81533   0.41733   Biso      1.000     C          0.051567999999999996          
         C11       1.0000    0.17977   0.78963   0.31933   Biso      1.000     C          0.025074000000000003          
         C12       1.0000    0.44170   0.45320   0.73000   Biso      1.000     C          -0.135373           
         C13       1.0000    0.44330   0.48200   0.08400   Biso      1.000     C          0.05179500000000001           
         C14       1.0000    0.51310   0.45630   0.98600   Biso      1.000     C          0.026542000000000003          
         C15       1.0000    0.34483   0.22497   0.39667   Biso      1.000     C          -0.1212   
         C16       1.0000    0.37203   0.22337   0.75067   Biso      1.000     C          0.062675  
         C17       1.0000    0.27653   0.15357   0.65267   Biso      1.000     C          0.021761000000000003          
         C18       1.0000    0.67817   0.89163   0.06333   Biso      1.000     C          -0.134385           
         C19       1.0000    0.14867   0.37203   0.24933   Biso      1.000     C          0.061595000000000004          
         C20       1.0000    0.70537   0.89003   0.41733   Biso      1.000     C          0.05166799999999999           
         C21       1.0000    0.11987   0.34483   0.60333   Biso      1.000     C          -0.12091500000000001          
         C22       1.0000    0.81533   0.70537   0.58267   Biso      1.000     C          0.060552999999999996          
         C23       1.0000    0.82023   0.21037   0.68067   Biso      1.000     C          0.021861000000000002          
         C24       1.0000    0.22497   0.88013   0.60333   Biso      1.000     C          -0.120049           
         C25       1.0000    0.22337   0.85133   0.24933   Biso      1.000     C          0.061135  
         C26       1.0000    0.15357   0.87703   0.34733   Biso      1.000     C          0.022364  
         C27       1.0000    0.55830   0.54680   0.27000   Biso      1.000     C          -0.12098900000000001          
         C28       1.0000    0.55670   0.51800   0.91600   Biso      1.000     C          0.061415  
         C29       1.0000    0.48690   0.54370   0.01400   Biso      1.000     C          0.021917  
         C30       1.0000    0.32183   0.10837   0.93667   Biso      1.000     C          -0.13656  
         C31       1.0000    0.29463   0.10997   0.58267   Biso      1.000     C          0.051898  
         C32       1.0000    0.39013   0.17977   0.68067   Biso      1.000     C          0.026632999999999997          
         C33       1.0000    0.65517   0.77503   0.60333   Biso      1.000     C          -0.12031300000000002          
         C34       1.0000    0.62797   0.77663   0.24933   Biso      1.000     C          0.060484  
         C35       1.0000    0.72347   0.84643   0.34733   Biso      1.000     C          0.02193   
         C36       1.0000    0.98850   0.44170   0.27000   Biso      1.000     C          -0.12011  
         C37       1.0000    0.96130   0.44330   0.91600   Biso      1.000     C          0.060595  
         C38       1.0000    0.05680   0.51310   0.01400   Biso      1.000     C          0.022046  
         C39       1.0000    0.78653   0.67817   0.93667   Biso      1.000     C          -0.120182           
         C40       1.0000    0.78963   0.60987   0.68067   Biso      1.000     C          0.021968  
         C41       1.0000    0.60987   0.82023   0.31933   Biso      1.000     C          0.02562   
         C42       1.0000    0.89163   0.21347   0.93667   Biso      1.000     C          -0.120387           
         C43       1.0000    0.54680   0.98850   0.73000   Biso      1.000     C          -0.134851           
         C44       1.0000    0.85133   0.62797   0.75067   Biso      1.000     C          0.051566999999999995          
         C45       1.0000    0.87703   0.72347   0.65267   Biso      1.000     C          0.025613  
         C46       1.0000    0.51800   0.96130   0.08400   Biso      1.000     C          0.051615  
         C47       1.0000    0.54370   0.05680   0.98600   Biso      1.000     C          0.025889  
         C48       1.0000    0.94320   0.48690   0.98600   Biso      1.000     C          0.025481999999999998          
         C49       1.0000    0.01150   0.55830   0.73000   Biso      1.000     C          -0.134458           
         C50       1.0000    0.03870   0.55670   0.08400   Biso      1.000     C          0.051645  
         C51       1.0000    0.88013   0.65517   0.39667   Biso      1.000     C          -0.134577           
         C52       1.0000    0.21037   0.39013   0.31933   Biso      1.000     C          0.026104000000000002          
         C53       1.0000    0.18467   0.29463   0.41733   Biso      1.000     C          0.051703  
         C54       1.0000    0.21347   0.32183   0.06333   Biso      1.000     C          -0.135973           
         N1        1.0000    0.00620   0.44950   0.02940   Biso      1.000     N          -0.139022           
         N2        1.0000    0.33953   0.11617   0.69607   Biso      1.000     N          -0.136034           
         N3        1.0000    0.44330   0.99380   0.02940   Biso      1.000     N          -0.139501           
         N4        1.0000    0.88383   0.22337   0.69607   Biso      1.000     N          -0.13877799999999998          
         N5        1.0000    0.55050   0.55670   0.02940   Biso      1.000     N          -0.138994           
         N6        1.0000    0.11617   0.77663   0.30393   Biso      1.000     N          -0.135613           
         N7        1.0000    0.55670   0.00620   0.97060   Biso      1.000     N          -0.135822           
         N8        1.0000    0.89003   0.67287   0.63727   Biso      1.000     N          -0.135528           
         N9        1.0000    0.77663   0.66047   0.69607   Biso      1.000     N          -0.13890999999999998          
         N10       1.0000    0.32713   0.21717   0.63727   Biso      1.000     N          -0.139508           
         N11       1.0000    0.99380   0.55050   0.97060   Biso      1.000     N          -0.135508           
         N12       1.0000    0.78283   0.10997   0.63727   Biso      1.000     N          -0.135622           
         N13       1.0000    0.44950   0.44330   0.97060   Biso      1.000     N          -0.135713           
         N14       1.0000    0.10997   0.32713   0.36273   Biso      1.000     N          -0.138978           
         N15       1.0000    0.67287   0.78283   0.36273   Biso      1.000     N          -0.138902           
         N16       1.0000    0.21717   0.89003   0.36273   Biso      1.000     N          -0.139344           
         N17       1.0000    0.66047   0.88383   0.30393   Biso      1.000     N          -0.135687           
         N18       1.0000    0.22337   0.33953   0.30393   Biso      1.000     N          -0.135242           
         Ni1       1.0000    0.97119   0.69507   0.71837   Biso      1.000     Ni          1.0092510000000001  
         Ni2       1.0000    0.02840   0.39054   0.94830   Biso      1.000     Ni          1.004675  
         Ni3       1.0000    0.69547   0.63827   0.61497   Biso      1.000     Ni          1.004785  
         Ni4       1.0000    0.69507   0.72387   0.28163   Biso      1.000     Ni          1.004812  
         Ni5       1.0000    0.36214   0.97160   0.94830   Biso      1.000     Ni          1.007651  
         Ni6       1.0000    0.36173   0.05721   0.61497   Biso      1.000     Ni          1.007484  
         Ni7       1.0000    0.02881   0.30493   0.28163   Biso      1.000     Ni          1.004905  
         Ni8       1.0000    0.63786   0.02840   0.05170   Biso      1.000     Ni          1.009272  
         Ni9       1.0000    0.30453   0.36173   0.38503   Biso      1.000     Ni          1.008143  
         Ni10      1.0000    0.60946   0.63786   0.94830   Biso      1.000     Ni          1.005126  
         Ni11      1.0000    0.97160   0.60946   0.05170   Biso      1.000     Ni          1.009193  
         Ni12      1.0000    0.30493   0.27613   0.71837   Biso      1.000     Ni          1.009626  
         Ni13      1.0000    0.39054   0.36214   0.05170   Biso      1.000     Ni          1.008031  
         Ni14      1.0000    0.94279   0.30453   0.61497   Biso      1.000     Ni          1.0047190000000001  
         Ni15      1.0000    0.72387   0.02881   0.71837   Biso      1.000     Ni          1.008997  
         Ni16      1.0000    0.63827   0.94279   0.38503   Biso      1.000     Ni          1.0093729999999999  
         Ni17      1.0000    0.27613   0.97119   0.28163   Biso      1.000     Ni          1.006003  
         Ni18      1.0000    0.05721   0.69547   0.38503   Biso      1.000     Ni          1.009255  
         O1        1.0000    0.76137   0.81393   0.81483   Biso      1.000     O          -0.52852  
         O2        1.0000    0.61410   0.09470   0.51850   Biso      1.000     O          -0.534641           
         O3        1.0000    0.66110   0.04720   0.72880   Biso      1.000     O          -0.674768           
         O4        1.0000    0.85273   0.28077   0.14817   Biso      1.000     O          -0.5284979999999999           
         O5        1.0000    0.95353   0.29727   0.29747   Biso      1.000     O          -0.712487           
         O6        1.0000    0.94723   0.32777   0.93787   Biso      1.000     O          -0.677088           
         O7        1.0000    0.63060   0.01040   0.36920   Biso      1.000     O          -0.714575           
         O8        1.0000    0.67707   0.71313   0.96413   Biso      1.000     O          -0.712674           
         O9        1.0000    0.28687   0.96393   0.96413   Biso      1.000     O          -0.713083           
         O10       1.0000    0.28057   0.99443   0.60453   Biso      1.000     O          -0.675687           
         O11       1.0000    0.32777   0.38053   0.06213   Biso      1.000     O          -0.674585           
         O12       1.0000    0.29727   0.34373   0.70253   Biso      1.000     O          -0.713068           
         O13       1.0000    0.28077   0.42803   0.85183   Biso      1.000     O          -0.5340199999999999           
         O14       1.0000    0.18607   0.94743   0.81483   Biso      1.000     O          -0.527767           
         O15       1.0000    0.61390   0.66110   0.27120   Biso      1.000     O          -0.67703  
         O16       1.0000    0.62020   0.63060   0.63080   Biso      1.000     O          -0.712771           
         O17       1.0000    0.42803   0.14727   0.14817   Biso      1.000     O          -0.534683           
         O18       1.0000    0.34373   0.04647   0.29747   Biso      1.000     O          -0.71238  
         O19       1.0000    0.38053   0.05277   0.93787   Biso      1.000     O          -0.675871           
         O20       1.0000    0.51940   0.61410   0.48150   Biso      1.000     O          -0.528751           
         O21       1.0000    0.71387   0.71943   0.60453   Biso      1.000     O          -0.677127           
         O22       1.0000    0.04720   0.38610   0.27120   Biso      1.000     O          -0.677107           
         O23       1.0000    0.61947   0.94723   0.06213   Biso      1.000     O          -0.6744439999999999           
         O24       1.0000    0.09470   0.48060   0.48150   Biso      1.000     O          -0.528591           
         O25       1.0000    0.01040   0.37980   0.63080   Biso      1.000     O          -0.7127680000000001           
         O26       1.0000    0.90530   0.51940   0.51850   Biso      1.000     O          -0.534211           
         O27       1.0000    0.98960   0.62020   0.36920   Biso      1.000     O          -0.714635           
         O28       1.0000    0.95280   0.61390   0.72880   Biso      1.000     O          -0.674663           
         O29       1.0000    0.05277   0.67223   0.06213   Biso      1.000     O          -0.674618           
         O30       1.0000    0.04647   0.70273   0.70253   Biso      1.000     O          -0.714422           
         O31       1.0000    0.14727   0.71923   0.85183   Biso      1.000     O          -0.5339189999999999           
         O32       1.0000    0.38610   0.33890   0.72880   Biso      1.000     O          -0.6763779999999999           
         O33       1.0000    0.37980   0.36940   0.36920   Biso      1.000     O          -0.71401  
         O34       1.0000    0.48060   0.38590   0.51850   Biso      1.000     O          -0.535208           
         O35       1.0000    0.28613   0.28057   0.39547   Biso      1.000     O          -0.676289           
         O36       1.0000    0.32293   0.28687   0.03587   Biso      1.000     O          -0.716073           
         O37       1.0000    0.23863   0.18607   0.18517   Biso      1.000     O          -0.530071           
         O38       1.0000    0.57197   0.85273   0.85183   Biso      1.000     O          -0.5339619999999999           
         O39       1.0000    0.65627   0.95353   0.70253   Biso      1.000     O          -0.714357           
         O40       1.0000    0.71313   0.03607   0.03587   Biso      1.000     O          -0.7144699999999999           
         O41       1.0000    0.71943   0.00557   0.39547   Biso      1.000     O          -0.674603           
         O42       1.0000    0.81393   0.05257   0.18517   Biso      1.000     O          -0.534184           
         O43       1.0000    0.71923   0.57197   0.14817   Biso      1.000     O          -0.528629           
         O44       1.0000    0.94743   0.76137   0.18517   Biso      1.000     O          -0.534035           
         O45       1.0000    0.96393   0.67707   0.03587   Biso      1.000     O          -0.7144229999999999           
         O46       1.0000    0.70273   0.65627   0.29747   Biso      1.000     O          -0.712771           
         O47       1.0000    0.99443   0.71387   0.39547   Biso      1.000     O          -0.674502           
         O48       1.0000    0.00557   0.28613   0.60453   Biso      1.000     O          -0.676812           
         O49       1.0000    0.03607   0.32293   0.96413   Biso      1.000     O          -0.712616           
         O50       1.0000    0.67223   0.61947   0.93787   Biso      1.000     O          -0.677271           
         O51       1.0000    0.05257   0.23863   0.81483   Biso      1.000     O          -0.52854  
         O52       1.0000    0.33890   0.95280   0.27120   Biso      1.000     O          -0.677331           
         O53       1.0000    0.36940   0.98960   0.63080   Biso      1.000     O          -0.7156020000000001           
         O54       1.0000    0.38590   0.90530   0.48150   Biso      1.000     O          -0.5301140000000001           
         P1        1.0000    0.70626   0.75937   0.76043   Biso      1.000     P          1.096997  
         P2        1.0000    0.94688   0.70626   0.23957   Biso      1.000     P          1.1001049999999999  
         P3        1.0000    0.03959   0.42604   0.42710   Biso      1.000     P          1.096926  
         P4        1.0000    0.90729   0.28022   0.09377   Biso      1.000     P          1.0968149999999999  
         P5        1.0000    0.61355   0.03959   0.57290   Biso      1.000     P          1.100441  
         P6        1.0000    0.29374   0.24063   0.23957   Biso      1.000     P          1.097323  
         P7        1.0000    0.62708   0.90729   0.90623   Biso      1.000     P          1.100096  
         P8        1.0000    0.28022   0.37292   0.90623   Biso      1.000     P          1.100874  
         P9        1.0000    0.71978   0.62708   0.09377   Biso      1.000     P          1.096998  
         P10       1.0000    0.38645   0.96041   0.42710   Biso      1.000     P          1.096765  
         P11       1.0000    0.24063   0.94688   0.76043   Biso      1.000     P          1.09686   
         P12       1.0000    0.05312   0.29374   0.76043   Biso      1.000     P          1.096739  
         P13       1.0000    0.37292   0.09271   0.09377   Biso      1.000     P          1.100809  
         P14       1.0000    0.75937   0.05312   0.23957   Biso      1.000     P          1.10017   
         P15       1.0000    0.57396   0.61355   0.42710   Biso      1.000     P          1.097065  
         P16       1.0000    0.96041   0.57396   0.57290   Biso      1.000     P          1.100366  
         P17       1.0000    0.42604   0.38645   0.57290   Biso      1.000     P          1.100509  
         P18       1.0000    0.09271   0.71978   0.90623   Biso      1.000     P          1.100385 