
##########################################################################
#               Crystallographic Information Format file
#               Produced by PyCifRW module
#
#  This is a CIF file.  CIF has been adopted by the International
#  Union of Crystallography as the standard for data archiving and
#  transmission.
#
#  For information on this file format, follow the CIF links at
#  http://www.iucr.org
##########################################################################

data_image0

_cell_length_a                          12.5729
_cell_length_b                          12.5729
_cell_length_c                          25.944
_cell_angle_alpha                       90
_cell_angle_beta                        90
_cell_angle_gamma                       90
_symmetry_space_group_name_H-M          'P 1'
_symmetry_int_tables_number             1
loop_
  _symmetry_equiv_pos_as_xyz
         'x, y, z' 
loop_
  _atom_site_label
  _atom_site_occupancy
  _atom_site_fract_x
  _atom_site_fract_y
  _atom_site_fract_z
  _atom_site_thermal_displace_type
  _atom_site_B_iso_or_equiv
  _atom_site_type_symbol
  _atom_site_charge
         C1        1.0000    0.52370   0.40580   0.76068   Biso      1.000     C          -0.109849           
         C2        1.0000    0.05630   0.92250   0.09745   Biso      1.000     C          0.202705  
         C3        1.0000    0.09060   0.97780   0.20748   Biso      1.000     C          -0.196425           
         C4        1.0000    0.09420   0.97630   0.26068   Biso      1.000     C          -0.10985  
         C5        1.0000    0.80900   0.25040   0.52260   Biso      1.000     C          0.66286   
         C6        1.0000    0.68460   0.45660   0.61060   Biso      1.000     C          -0.212429           
         C7        1.0000    0.75690   0.38980   0.58570   Biso      1.000     C          -0.09715499999999999          
         C8        1.0000    0.73050   0.32150   0.54556   Biso      1.000     C          -0.075175           
         C9        1.0000    0.62460   0.31930   0.53222   Biso      1.000     C          -0.090317           
         C10       1.0000    0.54340   0.37600   0.55828   Biso      1.000     C          -0.208155           
         C11       1.0000    0.57750   0.44370   0.59745   Biso      1.000     C          0.202705  
         C12       1.0000    0.52220   0.40940   0.70748   Biso      1.000     C          -0.196425           
         C13       1.0000    0.50000   0.50000   0.78671   Biso      1.000     C          -0.072136           
         C14       1.0000    0.19100   0.74960   0.52260   Biso      1.000     C          0.662858  
         C15       1.0000    0.31540   0.54340   0.61060   Biso      1.000     C          -0.212429           
         C16       1.0000    0.24310   0.61020   0.58570   Biso      1.000     C          -0.09715499999999999          
         C17       1.0000    0.26950   0.67850   0.54556   Biso      1.000     C          -0.075175           
         C18       1.0000    0.37540   0.68070   0.53222   Biso      1.000     C          -0.090317           
         C19       1.0000    0.25040   0.19100   0.47740   Biso      1.000     C          0.66286   
         C20       1.0000    0.59420   0.52370   0.23932   Biso      1.000     C          -0.109849           
         C21       1.0000    0.59060   0.52220   0.29252   Biso      1.000     C          -0.196425           
         C22       1.0000    0.55630   0.57750   0.40255   Biso      1.000     C          0.202704  
         C23       1.0000    0.62400   0.54340   0.44172   Biso      1.000     C          -0.208154           
         C24       1.0000    0.68070   0.62460   0.46778   Biso      1.000     C          -0.090323           
         C25       1.0000    0.12400   0.95660   0.05828   Biso      1.000     C          -0.208154           
         C26       1.0000    0.67850   0.73050   0.45444   Biso      1.000     C          -0.075169           
         C27       1.0000    0.54340   0.68460   0.38940   Biso      1.000     C          -0.21242800000000003          
         C28       1.0000    0.74960   0.80900   0.47740   Biso      1.000     C          0.6628569999999999  
         C29       1.0000    0.47630   0.59420   0.76068   Biso      1.000     C          -0.109849           
         C30       1.0000    0.47780   0.59060   0.70748   Biso      1.000     C          -0.196425           
         C31       1.0000    0.42250   0.55630   0.59745   Biso      1.000     C          0.202704  
         C32       1.0000    0.45660   0.62400   0.55828   Biso      1.000     C          -0.208155           
         C33       1.0000    0.61020   0.75690   0.41430   Biso      1.000     C          -0.09715599999999999          
         C34       1.0000    0.45660   0.31540   0.38940   Biso      1.000     C          -0.212429           
         C35       1.0000    0.18070   0.87540   0.03222   Biso      1.000     C          -0.090323           
         C36       1.0000    0.11020   0.74310   0.08570   Biso      1.000     C          -0.09715599999999999          
         C37       1.0000    0.50000   0.50000   0.21329   Biso      1.000     C          -0.072136           
         C38       1.0000    0.50000   0.50000   0.15570   Biso      1.000     C          0.65361   
         C39       1.0000    0.69100   0.75040   0.97740   Biso      1.000     C          0.662859  
         C40       1.0000    0.81540   0.95660   0.88940   Biso      1.000     C          -0.212429           
         C41       1.0000    0.74310   0.88980   0.91430   Biso      1.000     C          -0.09715499999999999          
         C42       1.0000    0.76950   0.82150   0.95444   Biso      1.000     C          -0.075175           
         C43       1.0000    0.87540   0.81930   0.96778   Biso      1.000     C          -0.090317           
         C44       1.0000    0.95660   0.87600   0.94172   Biso      1.000     C          -0.208155           
         C45       1.0000    0.92250   0.94370   0.90255   Biso      1.000     C          0.202705  
         C46       1.0000    0.97780   0.90940   0.79252   Biso      1.000     C          -0.196424           
         C47       1.0000    0.97630   0.90580   0.73932   Biso      1.000     C          -0.109849           
         C48       1.0000    0.30900   0.24960   0.97740   Biso      1.000     C          0.662858  
         C49       1.0000    0.18460   0.04340   0.88940   Biso      1.000     C          -0.21242800000000003          
         C50       1.0000    0.25690   0.11020   0.91430   Biso      1.000     C          -0.09715499999999999          
         C51       1.0000    0.23050   0.17850   0.95444   Biso      1.000     C          -0.075175           
         C52       1.0000    0.12460   0.18070   0.96778   Biso      1.000     C          -0.090317           
         C53       1.0000    0.04340   0.12400   0.94172   Biso      1.000     C          -0.208155           
         C54       1.0000    0.04340   0.81540   0.11060   Biso      1.000     C          -0.21242800000000003          
         C55       1.0000    0.24960   0.69100   0.02260   Biso      1.000     C          0.662859  
         C56       1.0000    0.90580   0.02370   0.26068   Biso      1.000     C          -0.109849           
         C57       1.0000    0.90940   0.02220   0.20748   Biso      1.000     C          -0.196425           
         C58       1.0000    0.94370   0.07750   0.09745   Biso      1.000     C          0.202704  
         C59       1.0000    0.87600   0.04340   0.05828   Biso      1.000     C          -0.208154           
         C60       1.0000    0.17850   0.76950   0.04556   Biso      1.000     C          -0.075169           
         C61       1.0000    0.81930   0.12460   0.03222   Biso      1.000     C          -0.090323           
         C62       1.0000    0.88980   0.25690   0.08570   Biso      1.000     C          -0.09715599999999999          
         C63       1.0000    0.95660   0.18460   0.11060   Biso      1.000     C          -0.21242800000000003          
         C64       1.0000    0.75040   0.30900   0.02260   Biso      1.000     C          0.662858  
         C65       1.0000    0.02370   0.09420   0.73932   Biso      1.000     C          -0.109849           
         C66       1.0000    0.02220   0.09060   0.79252   Biso      1.000     C          -0.196424           
         C67       1.0000    0.07750   0.05630   0.90255   Biso      1.000     C          0.202704  
         C68       1.0000    0.82150   0.23050   0.04556   Biso      1.000     C          -0.075169           
         C69       1.0000    0.38980   0.24310   0.41430   Biso      1.000     C          -0.09715499999999999          
         C70       1.0000    0.32150   0.26950   0.45444   Biso      1.000     C          -0.07517599999999999          
         C71       1.0000    0.31930   0.37540   0.46778   Biso      1.000     C          -0.090316           
         C72       1.0000    0.00000   0.00000   0.82040   Biso      1.000     C          0.19226300000000002           
         C73       1.0000    0.00000   0.00000   0.71329   Biso      1.000     C          -0.072137           
         C74       1.0000    0.00000   0.00000   0.65570   Biso      1.000     C          0.65361   
         C75       1.0000    0.00000   0.00000   0.17960   Biso      1.000     C          0.19226400000000002           
         C76       1.0000    0.00000   0.00000   0.28671   Biso      1.000     C          -0.072137           
         C77       1.0000    0.00000   0.00000   0.34430   Biso      1.000     C          0.65361   
         C78       1.0000    0.50000   0.50000   0.67960   Biso      1.000     C          0.19226400000000002           
         C79       1.0000    0.50000   0.50000   0.32040   Biso      1.000     C          0.19226   
         C80       1.0000    0.50000   0.50000   0.84430   Biso      1.000     C          0.65361   
         C81       1.0000    0.37600   0.45660   0.44172   Biso      1.000     C          -0.208156           
         C82       1.0000    0.44370   0.42250   0.40255   Biso      1.000     C          0.202705  
         C83       1.0000    0.40940   0.47780   0.29252   Biso      1.000     C          -0.196421           
         C84       1.0000    0.40580   0.47630   0.23932   Biso      1.000     C          -0.10985  
         H1        1.0000    0.96020   0.84350   0.72170   Biso      1.000     H          0.11743599999999998           
         H2        1.0000    0.39510   0.72240   0.50420   Biso      1.000     H          0.10384700000000001           
         H3        1.0000    0.52810   0.63150   0.54980   Biso      1.000     H          0.132226  
         H4        1.0000    0.46310   0.65280   0.68950   Biso      1.000     H          0.11636099999999999           
         H5        1.0000    0.46020   0.65650   0.77830   Biso      1.000     H          0.11743599999999998           
         H6        1.0000    0.83930   0.03910   0.55640   Biso      1.000     H          0.46215500000000004           
         H7        1.0000    0.49300   0.70650   0.36540   Biso      1.000     H          0.13285999999999998           
         H8        1.0000    0.60900   0.82730   0.40330   Biso      1.000     H          0.100837  
         H9        1.0000    0.72240   0.60490   0.49580   Biso      1.000     H          0.103848  
         H10       1.0000    0.63150   0.47190   0.45020   Biso      1.000     H          0.132226  
         H11       1.0000    0.65280   0.53690   0.31050   Biso      1.000     H          0.11636099999999999           
         H12       1.0000    0.65650   0.53980   0.22170   Biso      1.000     H          0.11743599999999998           
         H13       1.0000    0.50700   0.29350   0.36540   Biso      1.000     H          0.13285999999999998           
         H14       1.0000    0.17270   0.60900   0.59670   Biso      1.000     H          0.100837  
         H15       1.0000    0.39100   0.17270   0.40330   Biso      1.000     H          0.100837  
         H16       1.0000    0.27760   0.39510   0.49580   Biso      1.000     H          0.10384700000000001           
         H17       1.0000    0.36850   0.52810   0.45020   Biso      1.000     H          0.132226  
         H18       1.0000    0.34720   0.46310   0.31050   Biso      1.000     H          0.11636099999999999           
         H19       1.0000    0.34350   0.46020   0.22170   Biso      1.000     H          0.11743599999999998           
         H20       1.0000    0.96090   0.83930   0.44360   Biso      1.000     H          0.46215500000000004           
         H21       1.0000    0.89510   0.77760   0.99580   Biso      1.000     H          0.10384700000000001           
         H22       1.0000    0.67270   0.89100   0.90330   Biso      1.000     H          0.100837  
         H23       1.0000    0.79350   0.00700   0.86540   Biso      1.000     H          0.13285999999999998           
         H24       1.0000    0.03910   0.16070   0.44360   Biso      1.000     H          0.46215500000000004           
         H25       1.0000    0.29350   0.49300   0.63460   Biso      1.000     H          0.13286099999999998           
         H26       1.0000    0.16070   0.96090   0.55640   Biso      1.000     H          0.46215600000000007           
         H27       1.0000    0.53980   0.34350   0.77830   Biso      1.000     H          0.11743599999999998           
         H28       1.0000    0.33930   0.46090   0.94360   Biso      1.000     H          0.46215500000000004           
         H29       1.0000    0.20650   0.99300   0.86540   Biso      1.000     H          0.13285999999999998           
         H30       1.0000    0.32730   0.10900   0.90330   Biso      1.000     H          0.100837  
         H31       1.0000    0.10490   0.22240   0.99580   Biso      1.000     H          0.10384700000000001           
         H32       1.0000    0.97190   0.13150   0.95020   Biso      1.000     H          0.132226  
         H33       1.0000    0.03690   0.15280   0.81050   Biso      1.000     H          0.11636099999999999           
         H34       1.0000    0.03980   0.15650   0.72170   Biso      1.000     H          0.11743599999999998           
         H35       1.0000    0.66070   0.53910   0.94360   Biso      1.000     H          0.46215500000000004           
         H36       1.0000    0.00700   0.20650   0.13460   Biso      1.000     H          0.13285999999999998           
         H37       1.0000    0.89100   0.32730   0.09670   Biso      1.000     H          0.100837  
         H38       1.0000    0.77760   0.10490   0.00420   Biso      1.000     H          0.10384700000000001           
         H39       1.0000    0.86850   0.97190   0.04980   Biso      1.000     H          0.132225  
         H40       1.0000    0.84720   0.03690   0.18950   Biso      1.000     H          0.11636099999999999           
         H41       1.0000    0.84350   0.03980   0.27830   Biso      1.000     H          0.11743699999999999           
         H42       1.0000    0.46090   0.66070   0.05640   Biso      1.000     H          0.46215500000000004           
         H43       1.0000    0.99300   0.79350   0.13460   Biso      1.000     H          0.13285999999999998           
         H44       1.0000    0.10900   0.67270   0.09670   Biso      1.000     H          0.100837  
         H45       1.0000    0.22240   0.89510   0.00420   Biso      1.000     H          0.10384700000000001           
         H46       1.0000    0.13150   0.02810   0.04980   Biso      1.000     H          0.132225  
         H47       1.0000    0.15280   0.96310   0.18950   Biso      1.000     H          0.11636099999999999           
         H48       1.0000    0.15650   0.96020   0.27830   Biso      1.000     H          0.11743699999999999           
         H49       1.0000    0.53910   0.33930   0.05640   Biso      1.000     H          0.46215500000000004           
         H50       1.0000    0.70650   0.50700   0.63460   Biso      1.000     H          0.13285999999999998           
         H51       1.0000    0.02810   0.86850   0.95020   Biso      1.000     H          0.132226  
         H52       1.0000    0.60490   0.27760   0.50420   Biso      1.000     H          0.10384700000000001           
         H53       1.0000    0.47190   0.36850   0.54980   Biso      1.000     H          0.132225  
         H54       1.0000    0.53690   0.34720   0.68950   Biso      1.000     H          0.11636099999999999           
         H55       1.0000    0.96310   0.84720   0.81050   Biso      1.000     H          0.11636099999999999           
         H56       1.0000    0.82730   0.39100   0.59670   Biso      1.000     H          0.100837  
         Ho1       1.0000    0.14353   0.95724   0.44838   Biso      1.000     Ho          2.071002  
         Ho2       1.0000    0.45724   0.64353   0.94838   Biso      1.000     Ho          2.071     
         Ho3       1.0000    0.54276   0.35647   0.94838   Biso      1.000     Ho          2.071     
         Ho4       1.0000    0.64353   0.54276   0.05162   Biso      1.000     Ho          2.071001  
         Ho5       1.0000    0.35647   0.45724   0.05162   Biso      1.000     Ho          2.071001  
         Ho6       1.0000    0.04276   0.14353   0.55162   Biso      1.000     Ho          2.071001  
         Ho7       1.0000    0.95724   0.85647   0.55162   Biso      1.000     Ho          2.071002  
         Ho8       1.0000    0.85647   0.04276   0.44838   Biso      1.000     Ho          2.071002  
         N1        1.0000    0.00000   0.00000   0.87540   Biso      1.000     N          -0.181651           
         N2        1.0000    0.00000   0.00000   0.12460   Biso      1.000     N          -0.181651           
         N3        1.0000    0.50000   0.50000   0.62460   Biso      1.000     N          -0.181651           
         N4        1.0000    0.50000   0.50000   0.37540   Biso      1.000     N          -0.181651           
         O1        1.0000    0.31110   0.72320   0.98874   Biso      1.000     O          -0.751429           
         O2        1.0000    0.24200   0.59650   0.03651   Biso      1.000     O          -0.7382569999999999           
         O3        1.0000    0.91410   0.99460   0.36728   Biso      1.000     O          -0.752164           
         O4        1.0000    0.47550   0.60740   0.03748   Biso      1.000     O          -1.166974           
         O5        1.0000    0.68890   0.27680   0.98874   Biso      1.000     O          -0.751429           
         O6        1.0000    0.75800   0.40350   0.03651   Biso      1.000     O          -0.7382569999999999           
         O7        1.0000    0.39260   0.47550   0.96252   Biso      1.000     O          -1.166974           
         O8        1.0000    0.60740   0.52450   0.96252   Biso      1.000     O          -1.166974           
         O9        1.0000    0.27680   0.31110   0.01126   Biso      1.000     O          -0.75143  
         O10       1.0000    0.40350   0.24200   0.96349   Biso      1.000     O          -0.7382569999999999           
         O11       1.0000    0.00540   0.91410   0.63272   Biso      1.000     O          -0.752165           
         O12       1.0000    0.52450   0.39260   0.03748   Biso      1.000     O          -1.166974           
         O13       1.0000    0.72320   0.68890   0.01126   Biso      1.000     O          -0.751429           
         O14       1.0000    0.08590   0.00540   0.36728   Biso      1.000     O          -0.752164           
         O15       1.0000    0.50540   0.58590   0.86728   Biso      1.000     O          -0.752164           
         O16       1.0000    0.09650   0.74200   0.53651   Biso      1.000     O          -0.7382569999999999           
         O17       1.0000    0.77680   0.18890   0.48874   Biso      1.000     O          -0.75143  
         O18       1.0000    0.10740   0.97550   0.53748   Biso      1.000     O          -1.166974           
         O19       1.0000    0.49460   0.41410   0.86728   Biso      1.000     O          -0.752164           
         O20       1.0000    0.59650   0.75800   0.96349   Biso      1.000     O          -0.7382569999999999           
         O21       1.0000    0.22320   0.81110   0.48874   Biso      1.000     O          -0.75143  
         O22       1.0000    0.89260   0.02450   0.53748   Biso      1.000     O          -1.166975           
         O23       1.0000    0.41410   0.50540   0.13272   Biso      1.000     O          -0.752165           
         O24       1.0000    0.74200   0.90350   0.46349   Biso      1.000     O          -0.7382569999999999           
         O25       1.0000    0.81110   0.77680   0.51126   Biso      1.000     O          -0.7514310000000001           
         O26       1.0000    0.02450   0.10740   0.46252   Biso      1.000     O          -1.166974           
         O27       1.0000    0.58590   0.49460   0.13272   Biso      1.000     O          -0.752164           
         O28       1.0000    0.25800   0.09650   0.46349   Biso      1.000     O          -0.7382569999999999           
         O29       1.0000    0.18890   0.22320   0.51126   Biso      1.000     O          -0.751428           
         O30       1.0000    0.97550   0.89260   0.46252   Biso      1.000     O          -1.166974           
         O31       1.0000    0.90350   0.25800   0.53651   Biso      1.000     O          -0.738258           
         O32       1.0000    0.99460   0.08590   0.63272   Biso      1.000     O          -0.752162 