
##########################################################################
#               Crystallographic Information Format file
#               Produced by PyCifRW module
#
#  This is a CIF file.  CIF has been adopted by the International
#  Union of Crystallography as the standard for data archiving and
#  transmission.
#
#  For information on this file format, follow the CIF links at
#  http://www.iucr.org
##########################################################################

data_image0

_cell_length_a                          13.0478
_cell_length_b                          15.0693
_cell_length_c                          15.0693
_cell_angle_alpha                       67.9726
_cell_angle_beta                        73.2248
_cell_angle_gamma                       106.775
_symmetry_space_group_name_H-M          'P 1'
_symmetry_int_tables_number             1
loop_
  _symmetry_equiv_pos_as_xyz
         'x, y, z' 
loop_
  _atom_site_label
  _atom_site_occupancy
  _atom_site_fract_x
  _atom_site_fract_y
  _atom_site_fract_z
  _atom_site_thermal_displace_type
  _atom_site_B_iso_or_equiv
  _atom_site_type_symbol
  _atom_site_charge
         C1        1.0000    0.21540   0.29940   0.65860   Biso      1.000     C          0.330498  
         C2        1.0000    0.25530   0.23580   0.73180   Biso      1.000     C          -0.310179           
         C3        1.0000    0.38830   0.29520   0.69550   Biso      1.000     C          0.011108  
         C4        1.0000    0.53690   0.45340   0.65780   Biso      1.000     C          0.017623  
         C5        1.0000    0.52260   0.62720   0.61380   Biso      1.000     C          0.339711  
         C6        1.0000    0.91600   0.04200   0.29940   Biso      1.000     C          0.330291  
         C7        1.0000    0.01950   0.03240   0.23580   Biso      1.000     C          -0.30859899999999996          
         C8        1.0000    0.86360   0.38620   0.24100   Biso      1.000     C          0.340202  
         C9        1.0000    0.09310   0.00930   0.29520   Biso      1.000     C          0.010205  
         C10       1.0000    0.00980   0.77450   0.54820   Biso      1.000     C          -0.312923           
         C11       1.0000    0.89540   0.75900   0.62720   Biso      1.000     C          0.340563  
         C12       1.0000    0.87400   0.65860   0.04200   Biso      1.000     C          0.329158  
         C13       1.0000    0.98710   0.73180   0.03240   Biso      1.000     C          -0.309541           
         C14       1.0000    0.08380   0.69550   0.00930   Biso      1.000     C          0.009992000000000001          
         C15       1.0000    0.19470   0.65780   0.88880   Biso      1.000     C          0.01608   
         C16       1.0000    0.08350   0.88880   0.45340   Biso      1.000     C          0.01614   
         C17       1.0000    0.23530   0.67730   0.77450   Biso      1.000     C          -0.313335           
         C18       1.0000    0.76470   0.32270   0.22550   Biso      1.000     C          -0.313335           
         C19       1.0000    0.91620   0.30450   0.99070   Biso      1.000     C          0.009992000000000001          
         C20       1.0000    0.78460   0.70060   0.34140   Biso      1.000     C          0.330498  
         C21       1.0000    0.74470   0.76420   0.26820   Biso      1.000     C          -0.310179           
         C22       1.0000    0.61170   0.70480   0.30450   Biso      1.000     C          0.011108  
         C23       1.0000    0.46310   0.54660   0.34220   Biso      1.000     C          0.017623  
         C24       1.0000    0.44200   0.45180   0.32270   Biso      1.000     C          -0.312603           
         C25       1.0000    0.47740   0.37280   0.38620   Biso      1.000     C          0.339712  
         C26       1.0000    0.80530   0.34220   0.11120   Biso      1.000     C          0.01608   
         C27       1.0000    0.08400   0.95800   0.70060   Biso      1.000     C          0.330291  
         C28       1.0000    0.90690   0.99070   0.70480   Biso      1.000     C          0.010205  
         C29       1.0000    0.91650   0.11120   0.54660   Biso      1.000     C          0.01614   
         C30       1.0000    0.99020   0.22550   0.45180   Biso      1.000     C          -0.312924           
         C31       1.0000    0.10460   0.24100   0.37280   Biso      1.000     C          0.340562  
         C32       1.0000    0.12600   0.34140   0.95800   Biso      1.000     C          0.329156  
         C33       1.0000    0.01290   0.26820   0.96760   Biso      1.000     C          -0.309541           
         C34       1.0000    0.98050   0.96760   0.76420   Biso      1.000     C          -0.3086   
         C35       1.0000    0.13640   0.61380   0.75900   Biso      1.000     C          0.34020100000000003           
         C36       1.0000    0.55800   0.54820   0.67730   Biso      1.000     C          -0.312603           
         H1        1.0000    0.02860   0.26650   0.90140   Biso      1.000     H          0.14211500000000002           
         H2        1.0000    0.41280   0.25080   0.74200   Biso      1.000     H          0.088982  
         H3        1.0000    0.57040   0.40970   0.69270   Biso      1.000     H          0.091225  
         H4        1.0000    0.57570   0.47890   0.58160   Biso      1.000     H          0.07639   
         H5        1.0000    0.64220   0.58460   0.65820   Biso      1.000     H          0.141285  
         H6        1.0000    0.51270   0.52180   0.75290   Biso      1.000     H          0.148974  
         H7        1.0000    0.99010   0.97530   0.22100   Biso      1.000     H          0.137149  
         H8        1.0000    0.07000   0.09860   0.16790   Biso      1.000     H          0.140969  
         H9        1.0000    0.12150   0.06530   0.31160   Biso      1.000     H          0.082817  
         H10       1.0000    0.16070   0.89760   0.40970   Biso      1.000     H          0.09184400000000001           
         H11       1.0000    0.09680   0.93950   0.47890   Biso      1.000     H          0.07644400000000001           
         H12       1.0000    0.05760   0.75720   0.58460   Biso      1.000     H          0.141847  
         H13       1.0000    0.99090   0.72530   0.52180   Biso      1.000     H          0.148724  
         H14       1.0000    0.01480   0.80370   0.97530   Biso      1.000     H          0.137048  
         H15       1.0000    0.97140   0.73350   0.09860   Biso      1.000     H          0.14211500000000002           
         H16       1.0000    0.05620   0.62310   0.06530   Biso      1.000     H          0.083316  
         H17       1.0000    0.15480   0.74200   0.00720   Biso      1.000     H          0.08943999999999999           
         H18       1.0000    0.26310   0.69270   0.89760   Biso      1.000     H          0.091383  
         H19       1.0000    0.15730   0.58160   0.93950   Biso      1.000     H          0.076593  
         H20       1.0000    0.30040   0.65820   0.75720   Biso      1.000     H          0.142748  
         H21       1.0000    0.26560   0.75290   0.72530   Biso      1.000     H          0.14865499999999998           
         H22       1.0000    0.94380   0.37690   0.93470   Biso      1.000     H          0.083316  
         H23       1.0000    0.43310   0.31160   0.62310   Biso      1.000     H          0.08255599999999999           
         H24       1.0000    0.23790   0.16790   0.73350   Biso      1.000     H          0.141263  
         H25       1.0000    0.16200   0.00720   0.25080   Biso      1.000     H          0.089227  
         H26       1.0000    0.73440   0.24710   0.27470   Biso      1.000     H          0.14865499999999998           
         H27       1.0000    0.98520   0.19630   0.02470   Biso      1.000     H          0.137048  
         H28       1.0000    0.21110   0.22100   0.80370   Biso      1.000     H          0.137744  
         H29       1.0000    0.94240   0.24280   0.41540   Biso      1.000     H          0.141847  
         H30       1.0000    0.90320   0.06050   0.52110   Biso      1.000     H          0.07644400000000001           
         H31       1.0000    0.83930   0.10240   0.59030   Biso      1.000     H          0.09184400000000001           
         H32       1.0000    0.83800   0.99280   0.74920   Biso      1.000     H          0.089227  
         H33       1.0000    0.87850   0.93470   0.68840   Biso      1.000     H          0.082817  
         H34       1.0000    0.93000   0.90140   0.83210   Biso      1.000     H          0.14097   
         H35       1.0000    0.00990   0.02470   0.77900   Biso      1.000     H          0.137149  
         H36       1.0000    0.48730   0.47820   0.24710   Biso      1.000     H          0.148975  
         H37       1.0000    0.35780   0.41540   0.34180   Biso      1.000     H          0.141285  
         H38       1.0000    0.42430   0.52110   0.41840   Biso      1.000     H          0.07639   
         H39       1.0000    0.00910   0.27470   0.47820   Biso      1.000     H          0.148724  
         H40       1.0000    0.69960   0.34180   0.24280   Biso      1.000     H          0.14274900000000001           
         H41       1.0000    0.58720   0.74920   0.25800   Biso      1.000     H          0.08898099999999999           
         H42       1.0000    0.56690   0.68840   0.37690   Biso      1.000     H          0.08255599999999999           
         H43       1.0000    0.76210   0.83210   0.26650   Biso      1.000     H          0.141263  
         H44       1.0000    0.78890   0.77900   0.19630   Biso      1.000     H          0.137744  
         H45       1.0000    0.84520   0.25800   0.99280   Biso      1.000     H          0.08943999999999999           
         H46       1.0000    0.73690   0.30730   0.10240   Biso      1.000     H          0.091383  
         H47       1.0000    0.84270   0.41840   0.06050   Biso      1.000     H          0.076592  
         H48       1.0000    0.42960   0.59030   0.30730   Biso      1.000     H          0.091225  
         N1        1.0000    0.25390   0.42560   0.99720   Biso      1.000     N          -0.056753           
         N2        1.0000    0.14120   0.34690   0.03940   Biso      1.000     N          -0.279762           
         N3        1.0000    0.86228   0.45856   0.27082   Biso      1.000     N          -0.284298           
         N4        1.0000    0.96850   0.49770   0.27510   Biso      1.000     N          -0.077625           
         N5        1.0000    0.20570   0.38630   0.65310   Biso      1.000     N          -0.28118699999999996          
         N6        1.0000    0.96640   0.37880   0.22670   Biso      1.000     N          -0.28052699999999997          
         N7        1.0000    0.18690   0.27975   0.58885   Biso      1.000     N          -0.283524           
         N8        1.0000    0.30300   0.46430   0.89520   Biso      1.000     N          -0.057603999999999995         
         N9        1.0000    0.16130   0.35950   0.53570   Biso      1.000     N          -0.058038           
         N10       1.0000    0.17170   0.42280   0.57440   Biso      1.000     N          -0.055807           
         N11       1.0000    0.02940   0.45010   0.24940   Biso      1.000     N          -0.082467           
         N12       1.0000    0.22425   0.41115   0.86860   Biso      1.000     N          -0.283675           
         N13       1.0000    0.18060   0.03940   0.61370   Biso      1.000     N          -0.28120700000000004          
         N14       1.0000    0.27880   0.24940   0.30050   Biso      1.000     N          -0.084881           
         N15       1.0000    0.24360   0.27510   0.22720   Biso      1.000     N          -0.076103           
         N16       1.0000    0.13310   0.27082   0.27062   Biso      1.000     N          -0.284409           
         N17       1.0000    0.25110   0.99720   0.57720   Biso      1.000     N          -0.056928           
         N18       1.0000    0.19820   0.89520   0.64050   Biso      1.000     N          -0.056034           
         N19       1.0000    0.09285   0.86860   0.72025   Biso      1.000     N          -0.28472800000000004          
         N20       1.0000    0.58760   0.39450   0.37880   Biso      1.000     N          -0.279197           
         N21       1.0000    0.57930   0.30050   0.45010   Biso      1.000     N          -0.084619           
         N22       1.0000    0.40372   0.27062   0.45856   Biso      1.000     N          -0.284654           
         N23       1.0000    0.47080   0.22720   0.49770   Biso      1.000     N          -0.075709           
         N24       1.0000    0.19310   0.22670   0.39450   Biso      1.000     N          -0.278947           
         N25       1.0000    0.59628   0.72938   0.54144   Biso      1.000     N          -0.284654           
         N26       1.0000    0.81310   0.72025   0.41115   Biso      1.000     N          -0.283524           
         N27       1.0000    0.42070   0.69950   0.54990   Biso      1.000     N          -0.084628           
         N28       1.0000    0.79430   0.61370   0.34690   Biso      1.000     N          -0.28118699999999996          
         N29       1.0000    0.83870   0.64050   0.46430   Biso      1.000     N          -0.058038           
         N30       1.0000    0.03360   0.62120   0.77330   Biso      1.000     N          -0.280523           
         N31       1.0000    0.97060   0.54990   0.75060   Biso      1.000     N          -0.082512           
         N32       1.0000    0.03150   0.50230   0.72490   Biso      1.000     N          -0.077589           
         N33       1.0000    0.13772   0.54144   0.72918   Biso      1.000     N          -0.28429299999999996          
         N34       1.0000    0.85880   0.65310   0.96060   Biso      1.000     N          -0.279779           
         N35       1.0000    0.52920   0.77280   0.50230   Biso      1.000     N          -0.075708           
         N36       1.0000    0.69700   0.53570   0.10480   Biso      1.000     N          -0.05764299999999999          
         N37       1.0000    0.74610   0.57440   0.00280   Biso      1.000     N          -0.056704           
         N38       1.0000    0.80690   0.77330   0.60550   Biso      1.000     N          -0.278955           
         N39       1.0000    0.72120   0.75060   0.69950   Biso      1.000     N          -0.084874           
         N40       1.0000    0.75640   0.72490   0.77280   Biso      1.000     N          -0.07610499999999999          
         N41       1.0000    0.86690   0.72918   0.72938   Biso      1.000     N          -0.284409           
         N42       1.0000    0.81940   0.96060   0.38630   Biso      1.000     N          -0.28120700000000004          
         N43       1.0000    0.74890   0.00280   0.42280   Biso      1.000     N          -0.056928           
         N44       1.0000    0.80180   0.10480   0.35950   Biso      1.000     N          -0.056034           
         N45       1.0000    0.90715   0.13140   0.27975   Biso      1.000     N          -0.284727           
         N46       1.0000    0.41240   0.60550   0.62120   Biso      1.000     N          -0.279188           
         N47       1.0000    0.77575   0.58885   0.13140   Biso      1.000     N          -0.283671           
         N48       1.0000    0.82830   0.57720   0.42560   Biso      1.000     N          -0.055805999999999994         
         O1        1.0000    0.88811   0.30029   0.09146   Biso      1.000     O          -0.239313           
         O2        1.0000    0.41218   0.39175   0.69971   Biso      1.000     O          -0.240146           
         O3        1.0000    0.02043   0.90854   0.39175   Biso      1.000     O          -0.239459           
         O4        1.0000    0.11189   0.69971   0.90854   Biso      1.000     O          -0.239313           
         O5        1.0000    0.58782   0.60825   0.30029   Biso      1.000     O          -0.240146           
         O6        1.0000    0.97957   0.09146   0.60825   Biso      1.000     O          -0.239459           
         Zn1       1.0000    0.74462   0.52330   0.28551   Biso      1.000     Zn          0.6583180000000001  
         Zn2       1.0000    0.22132   0.19119   0.52330   Biso      1.000     Zn          0.65837   
         Zn3       1.0000    0.03013   0.28551   0.19119   Biso      1.000     Zn          0.657788  
         Zn4       1.0000    0.25538   0.47670   0.71449   Biso      1.000     Zn          0.658317  
         Zn5       1.0000    0.77868   0.80881   0.47670   Biso      1.000     Zn          0.658371  
         Zn6       1.0000    0.96987   0.71449   0.80881   Biso      1.000     Zn          0.6577890000000001 