
##########################################################################
#               Crystallographic Information Format file
#               Produced by PyCifRW module
#
#  This is a CIF file.  CIF has been adopted by the International
#  Union of Crystallography as the standard for data archiving and
#  transmission.
#
#  For information on this file format, follow the CIF links at
#  http://www.iucr.org
##########################################################################

data_image0

_cell_length_a                          13.6618
_cell_length_b                          13.6618
_cell_length_c                          13.6618
_cell_angle_alpha                       103.244
_cell_angle_beta                        103.244
_cell_angle_gamma                       103.244
_symmetry_space_group_name_H-M          'P 1'
_symmetry_int_tables_number             1
loop_
  _symmetry_equiv_pos_as_xyz
         'x, y, z' 
loop_
  _atom_site_label
  _atom_site_occupancy
  _atom_site_fract_x
  _atom_site_fract_y
  _atom_site_fract_z
  _atom_site_thermal_displace_type
  _atom_site_B_iso_or_equiv
  _atom_site_type_symbol
  _atom_site_charge
         C1        1.0000    0.84470   0.37780   0.06600   Biso      1.000     C          0.087987  
         C2        1.0000    0.06010   0.94250   0.36540   Biso      1.000     C          -0.196517           
         C3        1.0000    0.06600   0.84470   0.37780   Biso      1.000     C          0.087988  
         C4        1.0000    0.35430   0.95390   0.07000   Biso      1.000     C          -0.152394           
         C5        1.0000    0.36590   0.93220   0.28560   Biso      1.000     C          -0.21016300000000002          
         C6        1.0000    0.34610   0.10120   0.33170   Biso      1.000     C          -0.21695100000000003          
         C7        1.0000    0.35540   0.02020   0.25520   Biso      1.000     C          0.153807  
         C8        1.0000    0.36640   0.88050   0.89160   Biso      1.000     C          -0.21953499999999998          
         C9        1.0000    0.37570   0.89390   0.79660   Biso      1.000     C          0.083467  
         C10       1.0000    0.35560   0.09530   0.43190   Biso      1.000     C          0.066054  
         C11       1.0000    0.36180   0.96490   0.96840   Biso      1.000     C          0.149597  
         C12       1.0000    0.35320   0.02780   0.14990   Biso      1.000     C          -0.159102           
         C13       1.0000    0.37110   0.93110   0.38620   Biso      1.000     C          0.08560599999999999           
         C14       1.0000    0.36540   0.06010   0.94250   Biso      1.000     C          -0.196508           
         C15       1.0000    0.37780   0.06600   0.84470   Biso      1.000     C          0.08798500000000001           
         C16       1.0000    0.64570   0.93000   0.04610   Biso      1.000     C          -0.152403           
         C17       1.0000    0.93110   0.38620   0.37110   Biso      1.000     C          0.085596  
         C18       1.0000    0.63410   0.71440   0.06780   Biso      1.000     C          -0.210169           
         C19       1.0000    0.02780   0.14990   0.35320   Biso      1.000     C          -0.159162           
         C20       1.0000    0.09530   0.43190   0.35560   Biso      1.000     C          0.066048  
         C21       1.0000    0.43190   0.35560   0.09530   Biso      1.000     C          0.06604600000000001           
         C22       1.0000    0.79660   0.37570   0.89390   Biso      1.000     C          0.083462  
         C23       1.0000    0.89160   0.36640   0.88050   Biso      1.000     C          -0.219534           
         C24       1.0000    0.25520   0.35540   0.02020   Biso      1.000     C          0.15379   
         C25       1.0000    0.33170   0.34610   0.10120   Biso      1.000     C          -0.216946           
         C26       1.0000    0.28560   0.36590   0.93220   Biso      1.000     C          -0.21016999999999997          
         C27       1.0000    0.07000   0.35430   0.95390   Biso      1.000     C          -0.152402           
         C28       1.0000    0.38620   0.37110   0.93110   Biso      1.000     C          0.085599  
         C29       1.0000    0.94250   0.36540   0.06010   Biso      1.000     C          -0.196517           
         C30       1.0000    0.95390   0.07000   0.35430   Biso      1.000     C          -0.152357           
         C31       1.0000    0.93220   0.28560   0.36590   Biso      1.000     C          -0.210159           
         C32       1.0000    0.10120   0.33170   0.34610   Biso      1.000     C          -0.21694000000000002          
         C33       1.0000    0.02020   0.25520   0.35540   Biso      1.000     C          0.15379500000000002           
         C34       1.0000    0.88050   0.89160   0.36640   Biso      1.000     C          -0.219541           
         C35       1.0000    0.89390   0.79660   0.37570   Biso      1.000     C          0.083465  
         C36       1.0000    0.96490   0.96840   0.36180   Biso      1.000     C          0.149587  
         C37       1.0000    0.96840   0.36180   0.96490   Biso      1.000     C          0.149593  
         C38       1.0000    0.65390   0.66830   0.89880   Biso      1.000     C          -0.21694699999999997          
         C39       1.0000    0.63360   0.10840   0.11950   Biso      1.000     C          -0.21954  
         C40       1.0000    0.93400   0.62220   0.15530   Biso      1.000     C          0.087984  
         C41       1.0000    0.93990   0.63460   0.05750   Biso      1.000     C          -0.196508           
         C42       1.0000    0.06890   0.62890   0.61380   Biso      1.000     C          0.085587  
         C43       1.0000    0.97220   0.64680   0.85010   Biso      1.000     C          -0.159145           
         C44       1.0000    0.03510   0.63820   0.03160   Biso      1.000     C          0.149589  
         C45       1.0000    0.90470   0.64440   0.56810   Biso      1.000     C          0.06604   
         C46       1.0000    0.10610   0.62430   0.20340   Biso      1.000     C          0.083462  
         C47       1.0000    0.11950   0.63360   0.10840   Biso      1.000     C          -0.219536           
         C48       1.0000    0.97980   0.64460   0.74480   Biso      1.000     C          0.153799  
         C49       1.0000    0.89880   0.65390   0.66830   Biso      1.000     C          -0.216941           
         C50       1.0000    0.06780   0.63410   0.71440   Biso      1.000     C          -0.21016500000000002          
         C51       1.0000    0.04610   0.64570   0.93000   Biso      1.000     C          -0.152358           
         C52       1.0000    0.15530   0.93400   0.62220   Biso      1.000     C          0.08798500000000001           
         C53       1.0000    0.64460   0.74480   0.97980   Biso      1.000     C          0.153789  
         C54       1.0000    0.61380   0.06890   0.62890   Biso      1.000     C          0.085596  
         C55       1.0000    0.05750   0.93990   0.63460   Biso      1.000     C          -0.196506           
         C56       1.0000    0.03160   0.03510   0.63820   Biso      1.000     C          0.149588  
         C57       1.0000    0.62430   0.20340   0.10610   Biso      1.000     C          0.083467  
         C58       1.0000    0.64440   0.56810   0.90470   Biso      1.000     C          0.066053  
         C59       1.0000    0.63820   0.03160   0.03510   Biso      1.000     C          0.149593  
         C60       1.0000    0.64680   0.85010   0.97220   Biso      1.000     C          -0.159114           
         C61       1.0000    0.62890   0.61380   0.06890   Biso      1.000     C          0.085603  
         C62       1.0000    0.85010   0.97220   0.64680   Biso      1.000     C          -0.159162           
         C63       1.0000    0.62220   0.15530   0.93400   Biso      1.000     C          0.087991  
         C64       1.0000    0.63460   0.05750   0.93990   Biso      1.000     C          -0.196526           
         C65       1.0000    0.71440   0.06780   0.63410   Biso      1.000     C          -0.210154           
         C66       1.0000    0.66830   0.89880   0.65390   Biso      1.000     C          -0.21694000000000002          
         C67       1.0000    0.74480   0.97980   0.64460   Biso      1.000     C          0.153799  
         C68       1.0000    0.10840   0.11950   0.63360   Biso      1.000     C          -0.219536           
         C69       1.0000    0.20340   0.10610   0.62430   Biso      1.000     C          0.083464  
         C70       1.0000    0.56810   0.90470   0.64440   Biso      1.000     C          0.066058  
         C71       1.0000    0.93000   0.04610   0.64570   Biso      1.000     C          -0.152354           
         C72       1.0000    0.14990   0.35320   0.02780   Biso      1.000     C          -0.159113           
         Co1       1.0000    0.38191   0.00000   0.61809   Biso      1.000     Co          0.679291  
         Co2       1.0000    0.00000   0.61809   0.38191   Biso      1.000     Co          0.679294  
         Co3       1.0000    0.61809   0.38191   0.00000   Biso      1.000     Co          0.6793    
         Cr1       1.0000    0.50000   0.28698   0.71302   Biso      1.000     Cr          0.626203  
         Cr2       1.0000    0.71302   0.50000   0.28698   Biso      1.000     Cr          0.6261800000000001  
         Cr3       1.0000    0.28698   0.71302   0.50000   Biso      1.000     Cr          0.6261909999999999  
         H1        1.0000    0.88140   0.64040   0.00970   Biso      1.000     H          0.120904  
         H2        1.0000    0.35350   0.15340   0.48300   Biso      1.000     H          0.064338  
         H3        1.0000    0.37730   0.83560   0.74530   Biso      1.000     H          0.06783600000000001           
         H4        1.0000    0.36300   0.81530   0.90440   Biso      1.000     H          0.125698  
         H5        1.0000    0.33300   0.16070   0.31440   Biso      1.000     H          0.12031800000000001           
         H6        1.0000    0.36940   0.87330   0.23690   Biso      1.000     H          0.12115899999999999           
         H7        1.0000    0.87010   0.61710   0.17120   Biso      1.000     H          0.100337  
         H8        1.0000    0.12990   0.82880   0.38290   Biso      1.000     H          0.10033500000000001           
         H9        1.0000    0.11860   0.99030   0.35960   Biso      1.000     H          0.120904  
         H10       1.0000    0.87010   0.40430   0.37770   Biso      1.000     H          0.068227  
         H11       1.0000    0.09240   0.13800   0.35060   Biso      1.000     H          0.108727  
         H12       1.0000    0.15340   0.48300   0.35350   Biso      1.000     H          0.064334  
         H13       1.0000    0.83560   0.74530   0.37730   Biso      1.000     H          0.067834  
         H14       1.0000    0.81530   0.90440   0.36300   Biso      1.000     H          0.12569   
         H15       1.0000    0.16070   0.31440   0.33300   Biso      1.000     H          0.120314  
         H16       1.0000    0.87330   0.23690   0.36940   Biso      1.000     H          0.12115899999999999           
         H17       1.0000    0.88720   0.07940   0.34980   Biso      1.000     H          0.106464  
         H18       1.0000    0.82880   0.38290   0.12990   Biso      1.000     H          0.100339  
         H19       1.0000    0.99030   0.35960   0.11860   Biso      1.000     H          0.120905  
         H20       1.0000    0.40430   0.37770   0.87010   Biso      1.000     H          0.068225  
         H21       1.0000    0.13800   0.35060   0.09240   Biso      1.000     H          0.108723  
         H22       1.0000    0.48300   0.35350   0.15340   Biso      1.000     H          0.064335  
         H23       1.0000    0.74530   0.37730   0.83560   Biso      1.000     H          0.06783600000000001           
         H24       1.0000    0.90440   0.36300   0.81530   Biso      1.000     H          0.125694  
         H25       1.0000    0.31440   0.33300   0.16070   Biso      1.000     H          0.120308  
         H26       1.0000    0.23690   0.36940   0.87330   Biso      1.000     H          0.121154  
         H27       1.0000    0.07940   0.34980   0.88720   Biso      1.000     H          0.106467  
         H28       1.0000    0.35060   0.09240   0.13800   Biso      1.000     H          0.108726  
         H29       1.0000    0.37770   0.87010   0.40430   Biso      1.000     H          0.06823   
         H30       1.0000    0.34980   0.88720   0.07940   Biso      1.000     H          0.106472  
         H31       1.0000    0.38290   0.12990   0.82880   Biso      1.000     H          0.100339  
         H32       1.0000    0.12990   0.62230   0.59570   Biso      1.000     H          0.068224  
         H33       1.0000    0.90760   0.64940   0.86200   Biso      1.000     H          0.108725  
         H34       1.0000    0.84660   0.64650   0.51700   Biso      1.000     H          0.064334  
         H35       1.0000    0.16440   0.62270   0.25470   Biso      1.000     H          0.067833  
         H36       1.0000    0.18470   0.63700   0.09560   Biso      1.000     H          0.12568800000000002           
         H37       1.0000    0.35960   0.11860   0.99030   Biso      1.000     H          0.120905  
         H38       1.0000    0.12670   0.63060   0.76310   Biso      1.000     H          0.12115699999999999           
         H39       1.0000    0.11280   0.65020   0.92060   Biso      1.000     H          0.106465  
         H40       1.0000    0.17120   0.87010   0.61710   Biso      1.000     H          0.100337  
         H41       1.0000    0.00970   0.88140   0.64040   Biso      1.000     H          0.12090699999999999           
         H42       1.0000    0.59570   0.12990   0.62230   Biso      1.000     H          0.068232  
         H43       1.0000    0.86200   0.90760   0.64940   Biso      1.000     H          0.10873   
         H44       1.0000    0.51700   0.84660   0.64650   Biso      1.000     H          0.064337  
         H45       1.0000    0.25470   0.16440   0.62270   Biso      1.000     H          0.067834  
         H46       1.0000    0.83930   0.66700   0.68560   Biso      1.000     H          0.12029000000000001           
         H47       1.0000    0.68560   0.83930   0.66700   Biso      1.000     H          0.12031199999999999           
         H48       1.0000    0.09560   0.18470   0.63700   Biso      1.000     H          0.12569   
         H49       1.0000    0.65020   0.92060   0.11280   Biso      1.000     H          0.106467  
         H50       1.0000    0.63060   0.76310   0.12670   Biso      1.000     H          0.121148  
         H51       1.0000    0.66700   0.68560   0.83930   Biso      1.000     H          0.120304  
         H52       1.0000    0.62270   0.25470   0.16440   Biso      1.000     H          0.067833  
         H53       1.0000    0.64650   0.51700   0.84660   Biso      1.000     H          0.064336  
         H54       1.0000    0.63700   0.09560   0.18470   Biso      1.000     H          0.125699  
         H55       1.0000    0.62230   0.59570   0.12990   Biso      1.000     H          0.068222  
         H56       1.0000    0.64040   0.00970   0.88140   Biso      1.000     H          0.120905  
         H57       1.0000    0.61710   0.17120   0.87010   Biso      1.000     H          0.100338  
         H58       1.0000    0.92060   0.11280   0.65020   Biso      1.000     H          0.106466  
         H59       1.0000    0.76310   0.12670   0.63060   Biso      1.000     H          0.12116199999999999           
         H60       1.0000    0.64940   0.86200   0.90760   Biso      1.000     H          0.108721  
         N1        1.0000    0.61743   0.22687   0.01690   Biso      1.000     N          -0.227173           
         N2        1.0000    0.01690   0.61743   0.22687   Biso      1.000     N          -0.227171           
         N3        1.0000    0.98868   0.63248   0.54008   Biso      1.000     N          -0.214615           
         N4        1.0000    0.22687   0.01690   0.61743   Biso      1.000     N          -0.22717199999999999          
         N5        1.0000    0.54008   0.98868   0.63248   Biso      1.000     N          -0.214615           
         N6        1.0000    0.63248   0.54008   0.98868   Biso      1.000     N          -0.214617           
         N7        1.0000    0.77313   0.38257   0.98310   Biso      1.000     N          -0.227171           
         N8        1.0000    0.36752   0.01132   0.45992   Biso      1.000     N          -0.214612           
         N9        1.0000    0.98310   0.77313   0.38257   Biso      1.000     N          -0.22716999999999998          
         N10       1.0000    0.01132   0.45992   0.36752   Biso      1.000     N          -0.214612           
         N11       1.0000    0.45992   0.36752   0.01132   Biso      1.000     N          -0.214613           
         N12       1.0000    0.38257   0.98310   0.77313   Biso      1.000     N          -0.227169           
         O1        1.0000    0.44158   0.15982   0.67434   Biso      1.000     O          -0.686759           
         O2        1.0000    0.55842   0.32566   0.84018   Biso      1.000     O          -0.686759           
         O3        1.0000    0.84018   0.55842   0.32566   Biso      1.000     O          -0.686763           
         O4        1.0000    0.32566   0.84018   0.55842   Biso      1.000     O          -0.686773           
         O5        1.0000    0.67434   0.44158   0.15982   Biso      1.000     O          -0.686773           
         O6        1.0000    0.15982   0.67434   0.44158   Biso      1.000     O          -0.686759 