
##########################################################################
#               Crystallographic Information Format file
#               Produced by PyCifRW module
#
#  This is a CIF file.  CIF has been adopted by the International
#  Union of Crystallography as the standard for data archiving and
#  transmission.
#
#  For information on this file format, follow the CIF links at
#  http://www.iucr.org
##########################################################################

data_image0

_cell_length_a                          13.6822
_cell_length_b                          13.6822
_cell_length_c                          13.6822
_cell_angle_alpha                       102.353
_cell_angle_beta                        102.353
_cell_angle_gamma                       102.353
_symmetry_space_group_name_H-M          'P 1'
_symmetry_int_tables_number             1
loop_
  _symmetry_equiv_pos_as_xyz
         'x, y, z' 
loop_
  _atom_site_label
  _atom_site_occupancy
  _atom_site_fract_x
  _atom_site_fract_y
  _atom_site_fract_z
  _atom_site_thermal_displace_type
  _atom_site_B_iso_or_equiv
  _atom_site_type_symbol
  _atom_site_charge
         C1        1.0000    0.87910   0.43620   0.78810   Biso      1.000     C          -0.21271700000000002          
         C2        1.0000    0.92619   0.84714   0.59047   Biso      1.000     C          0.065045  
         C3        1.0000    0.88948   0.88520   0.43531   Biso      1.000     C          0.080073  
         C4        1.0000    0.78810   0.87910   0.43620   Biso      1.000     C          -0.212709           
         C5        1.0000    0.39437   0.29782   0.87853   Biso      1.000     C          0.071841  
         C6        1.0000    0.38214   0.39290   0.86876   Biso      1.000     C          -0.210473           
         C7        1.0000    0.46612   0.46753   0.86369   Biso      1.000     C          0.150865  
         C8        1.0000    0.82610   0.84000   0.59810   Biso      1.000     C          -0.217829           
         C9        1.0000    0.55837   0.43984   0.86609   Biso      1.000     C          -0.191978           
         C10       1.0000    0.45465   0.57055   0.85860   Biso      1.000     C          -0.158113           
         C11       1.0000    0.52860   0.64900   0.85530   Biso      1.000     C          -0.16409300000000002          
         C12       1.0000    0.51898   0.75452   0.85750   Biso      1.000     C          0.156359  
         C13       1.0000    0.59810   0.82610   0.84000   Biso      1.000     C          -0.21779400000000002          
         C14       1.0000    0.59047   0.92619   0.84714   Biso      1.000     C          0.065063  
         C15       1.0000    0.43531   0.88948   0.88520   Biso      1.000     C          0.080091  
         C16       1.0000    0.56464   0.34381   0.87677   Biso      1.000     C          0.085363  
         C17       1.0000    0.43620   0.78810   0.87910   Biso      1.000     C          -0.212673           
         C18       1.0000    0.75452   0.85750   0.51898   Biso      1.000     C          0.156344  
         C19       1.0000    0.57055   0.85860   0.45465   Biso      1.000     C          -0.158173           
         C20       1.0000    0.86609   0.55837   0.43984   Biso      1.000     C          -0.19200899999999999          
         C21       1.0000    0.86369   0.46612   0.46753   Biso      1.000     C          0.150848  
         C22       1.0000    0.86876   0.38214   0.39290   Biso      1.000     C          -0.210504           
         C23       1.0000    0.87853   0.39437   0.29782   Biso      1.000     C          0.071813  
         C24       1.0000    0.85530   0.52860   0.64900   Biso      1.000     C          -0.16418  
         C25       1.0000    0.85750   0.51898   0.75452   Biso      1.000     C          0.156357  
         C26       1.0000    0.64900   0.85530   0.52860   Biso      1.000     C          -0.16414600000000001          
         C27       1.0000    0.84000   0.59810   0.82610   Biso      1.000     C          -0.217831           
         C28       1.0000    0.88520   0.43531   0.88948   Biso      1.000     C          0.080079  
         C29       1.0000    0.29782   0.87853   0.39437   Biso      1.000     C          0.071811  
         C30       1.0000    0.39290   0.86876   0.38214   Biso      1.000     C          -0.21051  
         C31       1.0000    0.46753   0.86369   0.46612   Biso      1.000     C          0.150849  
         C32       1.0000    0.43984   0.86609   0.55837   Biso      1.000     C          -0.19203  
         C33       1.0000    0.34381   0.87677   0.56464   Biso      1.000     C          0.085342  
         C34       1.0000    0.84714   0.59047   0.92619   Biso      1.000     C          0.06504299999999999           
         C35       1.0000    0.60563   0.12147   0.70218   Biso      1.000     C          0.071836  
         C36       1.0000    0.61786   0.13124   0.60710   Biso      1.000     C          -0.210471           
         C37       1.0000    0.53388   0.13631   0.53247   Biso      1.000     C          0.150863  
         C38       1.0000    0.11480   0.11052   0.56469   Biso      1.000     C          0.080064  
         C39       1.0000    0.12090   0.21190   0.56380   Biso      1.000     C          -0.212716           
         C40       1.0000    0.70218   0.60563   0.12147   Biso      1.000     C          0.07181699999999999           
         C41       1.0000    0.60710   0.61786   0.13124   Biso      1.000     C          -0.210508           
         C42       1.0000    0.53247   0.53388   0.13631   Biso      1.000     C          0.15085   
         C43       1.0000    0.56016   0.44163   0.13391   Biso      1.000     C          -0.192018           
         C44       1.0000    0.15286   0.07381   0.40953   Biso      1.000     C          0.065039  
         C45       1.0000    0.65619   0.43536   0.12323   Biso      1.000     C          0.08534299999999999           
         C46       1.0000    0.35100   0.47140   0.14470   Biso      1.000     C          -0.164177           
         C47       1.0000    0.24548   0.48102   0.14250   Biso      1.000     C          0.15634800000000001           
         C48       1.0000    0.17390   0.40190   0.16000   Biso      1.000     C          -0.217822           
         C49       1.0000    0.07381   0.40953   0.15286   Biso      1.000     C          0.065053  
         C50       1.0000    0.11052   0.56469   0.11480   Biso      1.000     C          0.080077  
         C51       1.0000    0.21190   0.56380   0.12090   Biso      1.000     C          -0.21270100000000003          
         C52       1.0000    0.42945   0.54535   0.14140   Biso      1.000     C          -0.158136           
         C53       1.0000    0.16000   0.17390   0.40190   Biso      1.000     C          -0.217836           
         C54       1.0000    0.14250   0.24548   0.48102   Biso      1.000     C          0.156351  
         C55       1.0000    0.14470   0.35100   0.47140   Biso      1.000     C          -0.164192           
         C56       1.0000    0.44163   0.13391   0.56016   Biso      1.000     C          -0.191977           
         C57       1.0000    0.43536   0.12323   0.65619   Biso      1.000     C          0.085363  
         C58       1.0000    0.54535   0.14140   0.42945   Biso      1.000     C          -0.158105           
         C59       1.0000    0.47140   0.14470   0.35100   Biso      1.000     C          -0.16408399999999998          
         C60       1.0000    0.48102   0.14250   0.24548   Biso      1.000     C          0.156357  
         C61       1.0000    0.40190   0.16000   0.17390   Biso      1.000     C          -0.21779400000000002          
         C62       1.0000    0.40953   0.15286   0.07381   Biso      1.000     C          0.06506   
         C63       1.0000    0.56469   0.11480   0.11052   Biso      1.000     C          0.080087  
         C64       1.0000    0.56380   0.12090   0.21190   Biso      1.000     C          -0.21267199999999997          
         C65       1.0000    0.12147   0.70218   0.60563   Biso      1.000     C          0.071805  
         C66       1.0000    0.13124   0.60710   0.61786   Biso      1.000     C          -0.210506           
         C67       1.0000    0.13631   0.53247   0.53388   Biso      1.000     C          0.150845  
         C68       1.0000    0.13391   0.56016   0.44163   Biso      1.000     C          -0.192023           
         C69       1.0000    0.12323   0.65619   0.43536   Biso      1.000     C          0.085355  
         C70       1.0000    0.14140   0.42945   0.54535   Biso      1.000     C          -0.158134           
         C71       1.0000    0.87677   0.56464   0.34381   Biso      1.000     C          0.085359  
         C72       1.0000    0.85860   0.45465   0.57055   Biso      1.000     C          -0.158126           
         Co1       1.0000    0.88292   0.50000   0.11708   Biso      1.000     Co          0.625355  
         Co2       1.0000    0.11708   0.88292   0.50000   Biso      1.000     Co          0.62536   
         Co3       1.0000    0.50000   0.11708   0.88292   Biso      1.000     Co          0.625254  
         H1        1.0000    0.08920   0.62170   0.09900   Biso      1.000     H          0.071001  
         H2        1.0000    0.59260   0.63620   0.85120   Biso      1.000     H          0.11163800000000001           
         H3        1.0000    0.38920   0.58190   0.85750   Biso      1.000     H          0.10965799999999999           
         H4        1.0000    0.62810   0.32720   0.87930   Biso      1.000     H          0.096736  
         H5        1.0000    0.61650   0.48700   0.86040   Biso      1.000     H          0.119314  
         H6        1.0000    0.31750   0.40730   0.86560   Biso      1.000     H          0.124751  
         H7        1.0000    0.33660   0.24830   0.88160   Biso      1.000     H          0.069396  
         H8        1.0000    0.74190   0.88960   0.38040   Biso      1.000     H          0.123126  
         H9        1.0000    0.25810   0.61960   0.11040   Biso      1.000     H          0.12313900000000001           
         H10       1.0000    0.97370   0.83520   0.64430   Biso      1.000     H          0.069561  
         H11       1.0000    0.80630   0.82350   0.65570   Biso      1.000     H          0.121353  
         H12       1.0000    0.63620   0.85120   0.59260   Biso      1.000     H          0.11161800000000001           
         H13       1.0000    0.58190   0.85750   0.38920   Biso      1.000     H          0.109642  
         H14       1.0000    0.32720   0.87930   0.62810   Biso      1.000     H          0.096721  
         H15       1.0000    0.48700   0.86040   0.61650   Biso      1.000     H          0.119295  
         H16       1.0000    0.40730   0.86560   0.31750   Biso      1.000     H          0.12473   
         H17       1.0000    0.24830   0.88160   0.33660   Biso      1.000     H          0.069382  
         H18       1.0000    0.88960   0.38040   0.74190   Biso      1.000     H          0.12313800000000001           
         H19       1.0000    0.90100   0.37830   0.91080   Biso      1.000     H          0.070997  
         H20       1.0000    0.83520   0.64430   0.97370   Biso      1.000     H          0.06955399999999999           
         H21       1.0000    0.82350   0.65570   0.80630   Biso      1.000     H          0.121361  
         H22       1.0000    0.85120   0.59260   0.63620   Biso      1.000     H          0.11162799999999999           
         H23       1.0000    0.85750   0.38920   0.58190   Biso      1.000     H          0.10964000000000002           
         H24       1.0000    0.87930   0.62810   0.32720   Biso      1.000     H          0.09672599999999999           
         H25       1.0000    0.86040   0.61650   0.48700   Biso      1.000     H          0.11930199999999999           
         H26       1.0000    0.86560   0.31750   0.40730   Biso      1.000     H          0.124731  
         H27       1.0000    0.88160   0.33660   0.24830   Biso      1.000     H          0.069381  
         H28       1.0000    0.65570   0.80630   0.82350   Biso      1.000     H          0.121376  
         H29       1.0000    0.64430   0.97370   0.83520   Biso      1.000     H          0.069569  
         H30       1.0000    0.91080   0.90100   0.37830   Biso      1.000     H          0.070994  
         H31       1.0000    0.38040   0.74190   0.88960   Biso      1.000     H          0.123151  
         H32       1.0000    0.02630   0.35570   0.16480   Biso      1.000     H          0.069565  
         H33       1.0000    0.19370   0.34430   0.17650   Biso      1.000     H          0.12136199999999998           
         H34       1.0000    0.36380   0.40740   0.14880   Biso      1.000     H          0.111625  
         H35       1.0000    0.37830   0.91080   0.90100   Biso      1.000     H          0.071006  
         H36       1.0000    0.67280   0.37190   0.12070   Biso      1.000     H          0.096724  
         H37       1.0000    0.51300   0.38350   0.13960   Biso      1.000     H          0.119297  
         H38       1.0000    0.59270   0.68250   0.13440   Biso      1.000     H          0.12474   
         H39       1.0000    0.75170   0.66340   0.11840   Biso      1.000     H          0.069386  
         H40       1.0000    0.11040   0.25810   0.61960   Biso      1.000     H          0.123129  
         H41       1.0000    0.09900   0.08920   0.62170   Biso      1.000     H          0.070992  
         H42       1.0000    0.16480   0.02630   0.35570   Biso      1.000     H          0.06955399999999999           
         H43       1.0000    0.17650   0.19370   0.34430   Biso      1.000     H          0.12135499999999999           
         H44       1.0000    0.14880   0.36380   0.40740   Biso      1.000     H          0.111625  
         H45       1.0000    0.14250   0.41810   0.61080   Biso      1.000     H          0.10963599999999998           
         H46       1.0000    0.41810   0.61080   0.14250   Biso      1.000     H          0.10964700000000001           
         H47       1.0000    0.13960   0.51300   0.38350   Biso      1.000     H          0.119301  
         H48       1.0000    0.12070   0.67280   0.37190   Biso      1.000     H          0.096725  
         H49       1.0000    0.66340   0.11840   0.75170   Biso      1.000     H          0.06939400000000001           
         H50       1.0000    0.68250   0.13440   0.59270   Biso      1.000     H          0.124743  
         H51       1.0000    0.37190   0.12070   0.67280   Biso      1.000     H          0.096735  
         H52       1.0000    0.61080   0.14250   0.41810   Biso      1.000     H          0.10965599999999999           
         H53       1.0000    0.40740   0.14880   0.36380   Biso      1.000     H          0.11163499999999998           
         H54       1.0000    0.38350   0.13960   0.51300   Biso      1.000     H          0.11931199999999999           
         H55       1.0000    0.35570   0.16480   0.02630   Biso      1.000     H          0.069564  
         H56       1.0000    0.62170   0.09900   0.08920   Biso      1.000     H          0.071006  
         H57       1.0000    0.61960   0.11040   0.25810   Biso      1.000     H          0.123146  
         H58       1.0000    0.11840   0.75170   0.66340   Biso      1.000     H          0.069379  
         H59       1.0000    0.13440   0.59270   0.68250   Biso      1.000     H          0.12472799999999999           
         H60       1.0000    0.34430   0.17650   0.19370   Biso      1.000     H          0.12137300000000001           
         Mo1       1.0000    0.20721   0.00000   0.79279   Biso      1.000     Mo          0.534384  
         Mo2       1.0000    0.00000   0.79279   0.20721   Biso      1.000     Mo          0.534326  
         Mo3       1.0000    0.79279   0.20721   0.00000   Biso      1.000     Mo          0.534428  
         N1        1.0000    0.72775   0.51620   0.11621   Biso      1.000     N          -0.22796  
         N2        1.0000    0.51620   0.11621   0.72775   Biso      1.000     N          -0.22791199999999998          
         N3        1.0000    0.04065   0.48898   0.13015   Biso      1.000     N          -0.219521           
         N4        1.0000    0.11621   0.72775   0.51620   Biso      1.000     N          -0.227976           
         N5        1.0000    0.13015   0.04065   0.48898   Biso      1.000     N          -0.21953699999999998          
         N6        1.0000    0.48898   0.13015   0.04065   Biso      1.000     N          -0.219479           
         N7        1.0000    0.86985   0.51102   0.95935   Biso      1.000     N          -0.21953899999999998          
         N8        1.0000    0.51102   0.95935   0.86985   Biso      1.000     N          -0.21948  
         N9        1.0000    0.27225   0.88379   0.48380   Biso      1.000     N          -0.22796  
         N10       1.0000    0.95935   0.86985   0.51102   Biso      1.000     N          -0.219521           
         N11       1.0000    0.88379   0.48380   0.27225   Biso      1.000     N          -0.227971           
         N12       1.0000    0.48380   0.27225   0.88379   Biso      1.000     N          -0.227915           
         O1        1.0000    0.16875   0.93866   0.65775   Biso      1.000     O          -0.603073           
         O2        1.0000    0.83125   0.34225   0.06134   Biso      1.000     O          -0.603083           
         O3        1.0000    0.06134   0.83125   0.34225   Biso      1.000     O          -0.603092           
         O4        1.0000    0.34225   0.06134   0.83125   Biso      1.000     O          -0.603114           
         O5        1.0000    0.65775   0.16875   0.93866   Biso      1.000     O          -0.603115           
         O6        1.0000    0.93866   0.65775   0.16875   Biso      1.000     O          -0.603101 