
##########################################################################
#               Crystallographic Information Format file
#               Produced by PyCifRW module
#
#  This is a CIF file.  CIF has been adopted by the International
#  Union of Crystallography as the standard for data archiving and
#  transmission.
#
#  For information on this file format, follow the CIF links at
#  http://www.iucr.org
##########################################################################

data_image0

_cell_length_a                          6.7992
_cell_length_b                          11.553
_cell_length_c                          17.058
_cell_angle_alpha                       92.49
_cell_angle_beta                        90
_cell_angle_gamma                       90
_symmetry_space_group_name_H-M          'P 1'
_symmetry_int_tables_number             1
loop_
  _symmetry_equiv_pos_as_xyz
         'x, y, z' 
loop_
  _atom_site_label
  _atom_site_occupancy
  _atom_site_fract_x
  _atom_site_fract_y
  _atom_site_fract_z
  _atom_site_thermal_displace_type
  _atom_site_B_iso_or_equiv
  _atom_site_type_symbol
  _atom_site_charge
         C1        1.0000    0.11090   0.04010   0.43850   Biso      1.000     C          -0.024732           
         C2        1.0000    0.51060   0.42700   0.43300   Biso      1.000     C          -0.015665           
         C3        1.0000    0.51940   0.34600   0.36150   Biso      1.000     C          0.58611   
         C4        1.0000    0.70020   0.52240   0.00310   Biso      1.000     C          -0.103361           
         C5        1.0000    0.41000   0.43810   0.05830   Biso      1.000     C          -0.103557           
         C6        1.0000    0.61090   0.45990   0.06150   Biso      1.000     C          -0.024731           
         C7        1.0000    0.73380   0.41770   0.12740   Biso      1.000     C          0.567688  
         C8        1.0000    0.84110   0.00920   0.05040   Biso      1.000     C          -0.101962           
         C9        1.0000    0.16760   0.06380   0.01610   Biso      1.000     C          -0.106344           
         C10       1.0000    0.01060   0.07300   0.06700   Biso      1.000     C          -0.01566  
         C11       1.0000    0.01940   0.15400   0.13850   Biso      1.000     C          0.586109  
         C12       1.0000    0.23380   0.08230   0.37260   Biso      1.000     C          0.567688  
         C13       1.0000    0.91000   0.06190   0.44170   Biso      1.000     C          -0.103557           
         C14       1.0000    0.20020   0.97760   0.49690   Biso      1.000     C          -0.103361           
         C15       1.0000    0.98060   0.84600   0.86150   Biso      1.000     C          0.58611   
         C16       1.0000    0.98940   0.92700   0.93300   Biso      1.000     C          -0.015665           
         C17       1.0000    0.83240   0.93620   0.98390   Biso      1.000     C          -0.106339           
         C18       1.0000    0.15890   0.99080   0.94960   Biso      1.000     C          -0.101964           
         C19       1.0000    0.26620   0.58230   0.87260   Biso      1.000     C          0.567688  
         C20       1.0000    0.38910   0.54010   0.93850   Biso      1.000     C          -0.024733           
         C21       1.0000    0.59000   0.56190   0.94170   Biso      1.000     C          -0.103552           
         C22       1.0000    0.29980   0.47760   0.99690   Biso      1.000     C          -0.103356           
         C23       1.0000    0.48060   0.65400   0.63850   Biso      1.000     C          0.58611   
         C24       1.0000    0.48940   0.57300   0.56700   Biso      1.000     C          -0.015666           
         C25       1.0000    0.33240   0.56380   0.51610   Biso      1.000     C          -0.106337           
         C26       1.0000    0.65890   0.50920   0.55040   Biso      1.000     C          -0.101963           
         C27       1.0000    0.76620   0.91770   0.62740   Biso      1.000     C          0.567688  
         C28       1.0000    0.88910   0.95990   0.56150   Biso      1.000     C          -0.024733           
         C29       1.0000    0.09000   0.93810   0.55830   Biso      1.000     C          -0.103552           
         C30       1.0000    0.79980   0.02240   0.50310   Biso      1.000     C          -0.103356           
         C31       1.0000    0.66760   0.43620   0.48390   Biso      1.000     C          -0.106339           
         C32       1.0000    0.34110   0.49080   0.44960   Biso      1.000     C          -0.101964           
         H1        1.0000    0.28070   0.10710   0.02650   Biso      1.000     H          0.117142  
         H2        1.0000    0.34990   0.39690   0.09740   Biso      1.000     H          0.118925  
         H3        1.0000    0.73350   0.01550   0.08390   Biso      1.000     H          0.107518  
         H4        1.0000    0.83450   0.53740   0.00550   Biso      1.000     H          0.118572  
         H5        1.0000    0.78070   0.39290   0.47350   Biso      1.000     H          0.117141  
         H6        1.0000    0.23350   0.48450   0.41610   Biso      1.000     H          0.107518  
         H7        1.0000    0.84990   0.10310   0.40260   Biso      1.000     H          0.118925  
         H8        1.0000    0.33450   0.96260   0.49450   Biso      1.000     H          0.118572  
         H9        1.0000    0.26650   0.98450   0.91610   Biso      1.000     H          0.107518  
         H10       1.0000    0.65010   0.60310   0.90260   Biso      1.000     H          0.118925  
         H11       1.0000    0.71930   0.89290   0.97350   Biso      1.000     H          0.117141  
         H12       1.0000    0.21930   0.60710   0.52650   Biso      1.000     H          0.117141  
         H13       1.0000    0.76650   0.51550   0.58390   Biso      1.000     H          0.107518  
         H14       1.0000    0.15010   0.89690   0.59740   Biso      1.000     H          0.118925  
         H15       1.0000    0.66550   0.03740   0.50550   Biso      1.000     H          0.118572  
         H16       1.0000    0.16550   0.46260   0.99450   Biso      1.000     H          0.118572  
         O1        1.0000    0.14590   0.12910   0.31610   Biso      1.000     O          -0.580211           
         O2        1.0000    0.08430   0.56980   0.87380   Biso      1.000     O          -0.529707           
         O3        1.0000    0.63010   0.66440   0.68040   Biso      1.000     O          -0.548932           
         O4        1.0000    0.35410   0.62910   0.81610   Biso      1.000     O          -0.580212           
         O5        1.0000    0.32210   0.70950   0.65181   Biso      1.000     O          -0.582782           
         O6        1.0000    0.82210   0.79050   0.84819   Biso      1.000     O          -0.582782           
         O7        1.0000    0.13010   0.83560   0.81960   Biso      1.000     O          -0.548931           
         O8        1.0000    0.41570   0.06980   0.37380   Biso      1.000     O          -0.529707           
         O9        1.0000    0.67790   0.29050   0.34819   Biso      1.000     O          -0.582782           
         O10       1.0000    0.85410   0.87090   0.68390   Biso      1.000     O          -0.580211           
         O11       1.0000    0.91570   0.43020   0.12620   Biso      1.000     O          -0.529707           
         O12       1.0000    0.64590   0.37090   0.18390   Biso      1.000     O          -0.580211           
         O13       1.0000    0.17790   0.20950   0.15181   Biso      1.000     O          -0.582782           
         O14       1.0000    0.86990   0.16440   0.18040   Biso      1.000     O          -0.548932           
         O15       1.0000    0.36990   0.33560   0.31960   Biso      1.000     O          -0.548931           
         O16       1.0000    0.58430   0.93020   0.62620   Biso      1.000     O          -0.529708           
         Pb1       1.0000    0.55058   0.84285   0.75693   Biso      1.000     Pb          1.081291  
         Pb2       1.0000    0.94942   0.34285   0.25693   Biso      1.000     Pb          1.081291  
         Pb3       1.0000    0.44942   0.15715   0.24307   Biso      1.000     Pb          1.08129   
         Pb4       1.0000    0.05058   0.65715   0.74307   Biso      1.000     Pb          1.081291 