
##########################################################################
#               Crystallographic Information Format file
#               Produced by PyCifRW module
#
#  This is a CIF file.  CIF has been adopted by the International
#  Union of Crystallography as the standard for data archiving and
#  transmission.
#
#  For information on this file format, follow the CIF links at
#  http://www.iucr.org
##########################################################################

data_image0

_cell_length_a                          8.856
_cell_length_b                          9.069
_cell_length_c                          15.535
_cell_angle_alpha                       90
_cell_angle_beta                        90
_cell_angle_gamma                       114.43
_symmetry_space_group_name_H-M          'P 1'
_symmetry_int_tables_number             1
loop_
  _symmetry_equiv_pos_as_xyz
         'x, y, z' 
loop_
  _atom_site_label
  _atom_site_occupancy
  _atom_site_fract_x
  _atom_site_fract_y
  _atom_site_fract_z
  _atom_site_thermal_displace_type
  _atom_site_B_iso_or_equiv
  _atom_site_type_symbol
  _atom_site_charge
         C1        1.0000    0.80600   0.15200   0.54440   Biso      1.000     C          -0.412846           
         C2        1.0000    0.69400   0.34800   0.04440   Biso      1.000     C          -0.41287799999999997          
         C3        1.0000    0.66800   0.20600   0.10640   Biso      1.000     C          0.655929  
         C4        1.0000    0.62900   0.46800   0.07920   Biso      1.000     C          0.665604  
         C5        1.0000    0.83200   0.29400   0.60640   Biso      1.000     C          0.6559229999999999  
         C6        1.0000    0.87100   0.03200   0.57920   Biso      1.000     C          0.665579  
         C7        1.0000    0.30600   0.65200   0.95560   Biso      1.000     C          -0.412793           
         C8        1.0000    0.33200   0.79400   0.89360   Biso      1.000     C          0.6558729999999999  
         C9        1.0000    0.12900   0.96800   0.42080   Biso      1.000     C          0.6656770000000001  
         C10       1.0000    0.16800   0.70600   0.39360   Biso      1.000     C          0.655844  
         C11       1.0000    0.19400   0.84800   0.45560   Biso      1.000     C          -0.41282700000000006          
         C12       1.0000    0.37100   0.53200   0.92080   Biso      1.000     C          0.665616  
         Np1       1.0000    0.24759   0.37432   0.35839   Biso      1.000     Np          2.039832  
         Np2       1.0000    0.74759   0.87432   0.14161   Biso      1.000     Np          2.040361  
         Np3       1.0000    0.23215   0.35682   0.62736   Biso      1.000     Np          2.393725  
         Np4       1.0000    0.75241   0.62568   0.64161   Biso      1.000     Np          2.0403759999999997  
         Np5       1.0000    0.73215   0.85682   0.87264   Biso      1.000     Np          2.393891  
         Np6       1.0000    0.25241   0.12568   0.85839   Biso      1.000     Np          2.0400549999999997  
         Np7       1.0000    0.76785   0.64318   0.37264   Biso      1.000     Np          2.394014  
         Np8       1.0000    0.26785   0.14318   0.12736   Biso      1.000     Np          2.3937470000000003  
         O1        1.0000    0.21600   0.40000   0.51270   Biso      1.000     O          -0.876973           
         O2        1.0000    0.24450   0.30820   0.74160   Biso      1.000     O          -0.927845           
         O3        1.0000    0.77200   0.88480   0.57750   Biso      1.000     O          -0.602166           
         O4        1.0000    0.01930   0.08180   0.60420   Biso      1.000     O          -0.666601           
         O5        1.0000    0.71920   0.34410   0.60750   Biso      1.000     O          -0.637008           
         O6        1.0000    0.25550   0.19180   0.24160   Biso      1.000     O          -0.92781  
         O7        1.0000    0.97440   0.95590   0.12870   Biso      1.000     O          -0.943691           
         O8        1.0000    0.28400   0.10000   0.01270   Biso      1.000     O          -0.877065           
         O9        1.0000    0.72800   0.61520   0.07750   Biso      1.000     O          -0.602226           
         O10       1.0000    0.48070   0.41820   0.10420   Biso      1.000     O          -0.666609           
         O11       1.0000    0.52560   0.54410   0.62870   Biso      1.000     O          -0.9437610000000001           
         O12       1.0000    0.96000   0.35300   0.64990   Biso      1.000     O          -0.68807  
         O13       1.0000    0.46000   0.85300   0.85010   Biso      1.000     O          -0.688106           
         O14       1.0000    0.22800   0.11520   0.42250   Biso      1.000     O          -0.602341           
         O15       1.0000    0.51930   0.58180   0.89580   Biso      1.000     O          -0.666691           
         O16       1.0000    0.27200   0.38480   0.92250   Biso      1.000     O          -0.602292           
         O17       1.0000    0.74450   0.80820   0.75840   Biso      1.000     O          -0.928055           
         O18       1.0000    0.71600   0.90000   0.98730   Biso      1.000     O          -0.877165           
         O19       1.0000    0.02560   0.04410   0.87130   Biso      1.000     O          -0.9435319999999999           
         O20       1.0000    0.04000   0.64700   0.35010   Biso      1.000     O          -0.6881659999999999           
         O21       1.0000    0.28080   0.65590   0.39250   Biso      1.000     O          -0.6369319999999999           
         O22       1.0000    0.98070   0.91820   0.39580   Biso      1.000     O          -0.666768           
         O23       1.0000    0.78080   0.15590   0.10750   Biso      1.000     O          -0.637008           
         O24       1.0000    0.75550   0.69180   0.25840   Biso      1.000     O          -0.928127           
         O25       1.0000    0.78400   0.60000   0.48730   Biso      1.000     O          -0.877242           
         O26       1.0000    0.47440   0.45590   0.37130   Biso      1.000     O          -0.9433879999999999           
         O27       1.0000    0.21920   0.84410   0.89250   Biso      1.000     O          -0.6369640000000001           
         O28       1.0000    0.54000   0.14700   0.14990   Biso      1.000     O          -0.688096 