
##########################################################################
#               Crystallographic Information Format file
#               Produced by PyCifRW module
#
#  This is a CIF file.  CIF has been adopted by the International
#  Union of Crystallography as the standard for data archiving and
#  transmission.
#
#  For information on this file format, follow the CIF links at
#  http://www.iucr.org
##########################################################################

data_image0

_cell_length_a                          8.7
_cell_length_b                          11.4517
_cell_length_c                          23.0491
_cell_angle_alpha                       90
_cell_angle_beta                        90
_cell_angle_gamma                       90
_symmetry_space_group_name_H-M          'P 1'
_symmetry_int_tables_number             1
loop_
  _symmetry_equiv_pos_as_xyz
         'x, y, z' 
loop_
  _atom_site_label
  _atom_site_occupancy
  _atom_site_fract_x
  _atom_site_fract_y
  _atom_site_fract_z
  _atom_site_thermal_displace_type
  _atom_site_B_iso_or_equiv
  _atom_site_type_symbol
  _atom_site_charge
         C1        1.0000    0.95280   0.11250   0.37310   Biso      1.000     C          -0.23667800000000003          
         C2        1.0000    0.37980   0.86610   0.08670   Biso      1.000     C          0.15116500000000002           
         C3        1.0000    0.32610   0.97390   0.07030   Biso      1.000     C          -0.202711           
         C4        1.0000    0.84860   0.74690   0.00250   Biso      1.000     C          -0.133296           
         C5        1.0000    0.31560   0.06160   0.11290   Biso      1.000     C          0.12325499999999999           
         C6        1.0000    0.94260   0.64700   0.22980   Biso      1.000     C          0.6277729999999999  
         C7        1.0000    0.34320   0.62910   0.24250   Biso      1.000     C          0.636545  
         C8        1.0000    0.33520   0.38390   0.16520   Biso      1.000     C          0.6302300000000001  
         C9        1.0000    0.01570   0.39590   0.13660   Biso      1.000     C          0.603063  
         C10       1.0000    0.08320   0.64860   0.19000   Biso      1.000     C          -0.119495           
         C11       1.0000    0.42040   0.84820   0.14330   Biso      1.000     C          -0.195914           
         C12       1.0000    0.86450   0.85260   0.03840   Biso      1.000     C          0.161128  
         C13       1.0000    0.80420   0.85130   0.09400   Biso      1.000     C          -0.192677           
         C14       1.0000    0.26790   0.50350   0.15620   Biso      1.000     C          -0.155362           
         C15       1.0000    0.12570   0.49700   0.11690   Biso      1.000     C          -0.11061199999999999          
         C16       1.0000    0.81450   0.95100   0.12760   Biso      1.000     C          0.10706199999999999           
         C17       1.0000    0.04720   0.61250   0.12690   Biso      1.000     C          -0.236677           
         C18       1.0000    0.92770   0.05380   0.05310   Biso      1.000     C          0.094311  
         C19       1.0000    0.92530   0.95750   0.01600   Biso      1.000     C          -0.19956500000000002          
         C20       1.0000    0.87430   0.99700   0.38310   Biso      1.000     C          -0.11061199999999999          
         C21       1.0000    0.73210   0.00350   0.34380   Biso      1.000     C          -0.155362           
         C22       1.0000    0.21440   0.56990   0.21080   Biso      1.000     C          -0.18275  
         C23       1.0000    0.78560   0.06990   0.28920   Biso      1.000     C          -0.18275  
         C24       1.0000    0.90240   0.73990   0.95360   Biso      1.000     C          -0.125949           
         C25       1.0000    0.40240   0.76010   0.04640   Biso      1.000     C          -0.12606900000000001          
         C26       1.0000    0.76790   0.99650   0.84380   Biso      1.000     C          -0.155362           
         C27       1.0000    0.54720   0.88750   0.87310   Biso      1.000     C          -0.236679           
         C28       1.0000    0.71440   0.93010   0.78920   Biso      1.000     C          -0.18275  
         C29       1.0000    0.58320   0.85140   0.81000   Biso      1.000     C          -0.119495           
         C30       1.0000    0.51570   0.10410   0.86340   Biso      1.000     C          0.603062  
         C31       1.0000    0.83520   0.11610   0.83480   Biso      1.000     C          0.6302300000000001  
         C32       1.0000    0.84320   0.87090   0.75750   Biso      1.000     C          0.636545  
         C33       1.0000    0.44260   0.85300   0.77020   Biso      1.000     C          0.6277729999999999  
         C34       1.0000    0.81560   0.43840   0.88710   Biso      1.000     C          0.12325599999999999           
         C35       1.0000    0.40560   0.94000   0.18260   Biso      1.000     C          0.09983099999999999           
         C36       1.0000    0.82610   0.52610   0.92970   Biso      1.000     C          -0.202716           
         C37       1.0000    0.42530   0.54250   0.98400   Biso      1.000     C          -0.19956400000000002          
         C38       1.0000    0.42770   0.44620   0.94690   Biso      1.000     C          0.094311  
         C39       1.0000    0.87980   0.63390   0.91330   Biso      1.000     C          0.151161  
         C40       1.0000    0.31450   0.54900   0.87240   Biso      1.000     C          0.10706099999999999           
         C41       1.0000    0.92040   0.65180   0.85670   Biso      1.000     C          -0.195916           
         C42       1.0000    0.30420   0.64870   0.90600   Biso      1.000     C          -0.19268  
         C43       1.0000    0.36450   0.64740   0.96160   Biso      1.000     C          0.161119  
         C44       1.0000    0.34860   0.75310   0.99750   Biso      1.000     C          -0.13317400000000001          
         C45       1.0000    0.90560   0.56000   0.81740   Biso      1.000     C          0.099832  
         C46       1.0000    0.57470   0.04250   0.51600   Biso      1.000     C          -0.19956600000000002          
         C47       1.0000    0.07470   0.45750   0.48400   Biso      1.000     C          -0.19956400000000002          
         C48       1.0000    0.62570   0.00300   0.88310   Biso      1.000     C          -0.11061199999999999          
         C49       1.0000    0.15680   0.37090   0.74250   Biso      1.000     C          0.636545  
         C50       1.0000    0.07960   0.15180   0.64330   Biso      1.000     C          -0.19592  
         C51       1.0000    0.12020   0.13390   0.58670   Biso      1.000     C          0.15117   
         C52       1.0000    0.65140   0.25310   0.50250   Biso      1.000     C          -0.133296           
         C53       1.0000    0.17390   0.02610   0.57030   Biso      1.000     C          -0.20271199999999998          
         C54       1.0000    0.67390   0.47390   0.42970   Biso      1.000     C          -0.202716           
         C55       1.0000    0.18440   0.93840   0.61290   Biso      1.000     C          0.12325499999999999           
         C56       1.0000    0.55740   0.35300   0.72980   Biso      1.000     C          0.6277729999999999  
         C57       1.0000    0.91680   0.14860   0.31000   Biso      1.000     C          -0.119495           
         C58       1.0000    0.16480   0.61610   0.66520   Biso      1.000     C          0.6302300000000001  
         C59       1.0000    0.48430   0.60410   0.63660   Biso      1.000     C          0.603063  
         C60       1.0000    0.59760   0.26010   0.45360   Biso      1.000     C          -0.125949           
         C61       1.0000    0.41680   0.35140   0.69000   Biso      1.000     C          -0.119495           
         C62       1.0000    0.62020   0.36610   0.41330   Biso      1.000     C          0.151161  
         C63       1.0000    0.28560   0.43010   0.71080   Biso      1.000     C          -0.18275  
         C64       1.0000    0.45280   0.38750   0.62690   Biso      1.000     C          -0.236677           
         C65       1.0000    0.57960   0.34820   0.35670   Biso      1.000     C          -0.195916           
         C66       1.0000    0.23210   0.49650   0.65620   Biso      1.000     C          -0.155362           
         C67       1.0000    0.37430   0.50300   0.61690   Biso      1.000     C          -0.11061199999999999          
         C68       1.0000    0.09440   0.06000   0.68260   Biso      1.000     C          0.099832  
         C69       1.0000    0.68440   0.56160   0.38710   Biso      1.000     C          0.12325599999999999           
         C70       1.0000    0.09760   0.23990   0.54640   Biso      1.000     C          -0.12606900000000001          
         C71       1.0000    0.07230   0.55380   0.44690   Biso      1.000     C          0.094311  
         C72       1.0000    0.57230   0.94620   0.55310   Biso      1.000     C          0.094311  
         C73       1.0000    0.18550   0.45100   0.37240   Biso      1.000     C          0.10706099999999999           
         C74       1.0000    0.68550   0.04900   0.62760   Biso      1.000     C          0.10705999999999999           
         C75       1.0000    0.05740   0.14700   0.27020   Biso      1.000     C          0.6277729999999999  
         C76       1.0000    0.98430   0.89590   0.36340   Biso      1.000     C          0.603063  
         C77       1.0000    0.19580   0.35130   0.40600   Biso      1.000     C          -0.19268  
         C78       1.0000    0.59440   0.44000   0.31740   Biso      1.000     C          0.099832  
         C79       1.0000    0.69580   0.14870   0.59400   Biso      1.000     C          -0.192677           
         C80       1.0000    0.66480   0.88390   0.33480   Biso      1.000     C          0.6302300000000001  
         C81       1.0000    0.15140   0.24690   0.49750   Biso      1.000     C          -0.133175           
         C82       1.0000    0.63550   0.14740   0.53840   Biso      1.000     C          0.161131  
         C83       1.0000    0.65680   0.12910   0.25750   Biso      1.000     C          0.636545  
         C84       1.0000    0.13550   0.35260   0.46160   Biso      1.000     C          0.16112   
         H1        1.0000    0.74240   0.21560   0.60860   Biso      1.000     H          0.139426  
         H2        1.0000    0.77930   0.36550   0.89840   Biso      1.000     H          0.105521  
         H3        1.0000    0.53970   0.19770   0.43980   Biso      1.000     H          0.12113199999999999           
         H4        1.0000    0.66980   0.98770   0.76260   Biso      1.000     H          0.115003  
         H5        1.0000    0.72010   0.05340   0.66570   Biso      1.000     H          0.09965800000000001           
         H6        1.0000    0.84520   0.94850   0.86340   Biso      1.000     H          0.099584  
         H7        1.0000    0.70420   0.31680   0.51760   Biso      1.000     H          0.12239000000000001           
         H8        1.0000    0.52910   0.87760   0.53900   Biso      1.000     H          0.111549  
         H9        1.0000    0.79740   0.51140   0.96790   Biso      1.000     H          0.13616099999999998           
         H10       1.0000    0.62220   0.77110   0.81100   Biso      1.000     H          0.10298399999999999           
         H11       1.0000    0.83020   0.01230   0.26260   Biso      1.000     H          0.115003  
         H12       1.0000    0.54270   0.27600   0.34460   Biso      1.000     H          0.13611900000000002           
         H13       1.0000    0.65480   0.05150   0.36340   Biso      1.000     H          0.099584  
         H14       1.0000    0.87780   0.22890   0.31100   Biso      1.000     H          0.102985  
         H15       1.0000    0.84470   0.98790   0.42380   Biso      1.000     H          0.10079400000000001           
         H16       1.0000    0.91430   0.17070   0.40000   Biso      1.000     H          0.099708  
         H17       1.0000    0.06290   0.10490   0.37860   Biso      1.000     H          0.113301  
         H18       1.0000    0.65530   0.01210   0.92380   Biso      1.000     H          0.10079400000000001           
         H19       1.0000    0.96220   0.96220   0.97820   Biso      1.000     H          0.14186700000000002           
         H20       1.0000    0.56730   0.42710   0.27890   Biso      1.000     H          0.10694100000000001           
         H21       1.0000    0.97090   0.12240   0.03900   Biso      1.000     H          0.111549  
         H22       1.0000    0.75760   0.78440   0.10860   Biso      1.000     H          0.139426  
         H23       1.0000    0.79580   0.68320   0.01760   Biso      1.000     H          0.12239000000000001           
         H24       1.0000    0.72070   0.63450   0.39840   Biso      1.000     H          0.105521  
         H25       1.0000    0.96030   0.80230   0.93980   Biso      1.000     H          0.12113299999999999           
         H26       1.0000    0.70260   0.48860   0.46790   Biso      1.000     H          0.13616199999999998           
         H27       1.0000    0.93270   0.57290   0.77890   Biso      1.000     H          0.10694100000000001           
         H28       1.0000    0.95730   0.72400   0.84460   Biso      1.000     H          0.13611900000000002           
         H29       1.0000    0.77990   0.94660   0.16570   Biso      1.000     H          0.09965800000000001           
         H30       1.0000    0.46220   0.53780   0.02180   Biso      1.000     H          0.141868  
         H31       1.0000    0.53780   0.03780   0.47820   Biso      1.000     H          0.141868  
         H32       1.0000    0.43710   0.89510   0.87860   Biso      1.000     H          0.113301  
         H33       1.0000    0.08570   0.67070   0.10000   Biso      1.000     H          0.099709  
         H34       1.0000    0.93710   0.60490   0.12140   Biso      1.000     H          0.113302  
         H35       1.0000    0.56290   0.39510   0.62140   Biso      1.000     H          0.113302  
         H36       1.0000    0.41430   0.32930   0.60000   Biso      1.000     H          0.099709  
         H37       1.0000    0.34470   0.51210   0.57620   Biso      1.000     H          0.10079400000000001           
         H38       1.0000    0.15480   0.44850   0.63660   Biso      1.000     H          0.099584  
         H39       1.0000    0.33020   0.48770   0.73740   Biso      1.000     H          0.115003  
         H40       1.0000    0.37780   0.27110   0.68900   Biso      1.000     H          0.10298399999999999           
         H41       1.0000    0.22070   0.86550   0.60160   Biso      1.000     H          0.105521  
         H42       1.0000    0.20260   0.01140   0.53210   Biso      1.000     H          0.13616099999999998           
         H43       1.0000    0.04270   0.22400   0.65540   Biso      1.000     H          0.13611900000000002           
         H44       1.0000    0.06730   0.07290   0.72110   Biso      1.000     H          0.10694100000000001           
         H45       1.0000    0.58570   0.82930   0.90000   Biso      1.000     H          0.099708  
         H46       1.0000    0.03970   0.30230   0.56020   Biso      1.000     H          0.12114000000000001           
         H47       1.0000    0.20420   0.18320   0.48240   Biso      1.000     H          0.12238299999999999           
         H48       1.0000    0.24240   0.28440   0.39140   Biso      1.000     H          0.139426  
         H49       1.0000    0.22010   0.44660   0.33430   Biso      1.000     H          0.099659  
         H50       1.0000    0.02910   0.62240   0.46100   Biso      1.000     H          0.11154800000000001           
         H51       1.0000    0.03780   0.46220   0.52180   Biso      1.000     H          0.141869  
         H52       1.0000    0.15530   0.48790   0.07620   Biso      1.000     H          0.10079400000000001           
         H53       1.0000    0.16980   0.51230   0.23740   Biso      1.000     H          0.115003  
         H54       1.0000    0.34520   0.55150   0.13660   Biso      1.000     H          0.099584  
         H55       1.0000    0.27930   0.13450   0.10160   Biso      1.000     H          0.105521  
         H56       1.0000    0.29740   0.98860   0.03210   Biso      1.000     H          0.13616099999999998           
         H57       1.0000    0.45730   0.77600   0.15540   Biso      1.000     H          0.13611900000000002           
         H58       1.0000    0.43270   0.92710   0.22110   Biso      1.000     H          0.10694100000000001           
         H59       1.0000    0.46030   0.69770   0.06020   Biso      1.000     H          0.12114000000000001           
         H60       1.0000    0.29580   0.81680   0.98240   Biso      1.000     H          0.12238399999999999           
         H61       1.0000    0.25760   0.71560   0.89140   Biso      1.000     H          0.139426  
         H62       1.0000    0.27990   0.55340   0.83430   Biso      1.000     H          0.09965800000000001           
         H63       1.0000    0.47090   0.37760   0.96100   Biso      1.000     H          0.11154800000000001           
         H64       1.0000    0.12220   0.72890   0.18900   Biso      1.000     H          0.10298399999999999           
         N1        1.0000    0.14640   0.95300   0.66740   Biso      1.000     N          -0.20985399999999998          
         N2        1.0000    0.12840   0.55570   0.39110   Biso      1.000     N          -0.23157199999999997          
         N3        1.0000    0.87160   0.05570   0.10890   Biso      1.000     N          -0.231573           
         N4        1.0000    0.85360   0.45300   0.83260   Biso      1.000     N          -0.20985399999999998          
         N5        1.0000    0.62840   0.94430   0.60890   Biso      1.000     N          -0.231573           
         N6        1.0000    0.64640   0.54700   0.33260   Biso      1.000     N          -0.20985399999999998          
         N7        1.0000    0.35360   0.04700   0.16740   Biso      1.000     N          -0.20985399999999998          
         N8        1.0000    0.37160   0.44430   0.89110   Biso      1.000     N          -0.23157199999999997          
         O1        1.0000    0.53710   0.35090   0.78500   Biso      1.000     O          -0.607689           
         O2        1.0000    0.69150   0.34670   0.70980   Biso      1.000     O          -0.522997           
         O3        1.0000    0.10440   0.66510   0.62370   Biso      1.000     O          -0.597001           
         O4        1.0000    0.16960   0.65840   0.71590   Biso      1.000     O          -0.583118           
         O5        1.0000    0.47830   0.69600   0.60630   Biso      1.000     O          -0.591613           
         O6        1.0000    0.56670   0.60140   0.68010   Biso      1.000     O          -0.52822  
         O7        1.0000    0.02310   0.37870   0.72300   Biso      1.000     O          -0.528827           
         O8        1.0000    0.18290   0.31480   0.78800   Biso      1.000     O          -0.574277           
         O9        1.0000    0.19150   0.15330   0.29020   Biso      1.000     O          -0.522997           
         O10       1.0000    0.96290   0.64910   0.28500   Biso      1.000     O          -0.607689           
         O11       1.0000    0.52170   0.19600   0.89370   Biso      1.000     O          -0.591613           
         O12       1.0000    0.43330   0.10140   0.81990   Biso      1.000     O          -0.52822  
         O13       1.0000    0.30850   0.84670   0.79020   Biso      1.000     O          -0.522997           
         O14       1.0000    0.46290   0.85090   0.71500   Biso      1.000     O          -0.607689           
         O15       1.0000    0.47690   0.62130   0.22300   Biso      1.000     O          -0.528827           
         O16       1.0000    0.31710   0.68520   0.28800   Biso      1.000     O          -0.574278           
         O17       1.0000    0.93330   0.39860   0.18010   Biso      1.000     O          -0.528221           
         O18       1.0000    0.80850   0.65330   0.20980   Biso      1.000     O          -0.522997           
         O19       1.0000    0.81710   0.81480   0.71200   Biso      1.000     O          -0.574278           
         O20       1.0000    0.97690   0.87870   0.77700   Biso      1.000     O          -0.528827           
         O21       1.0000    0.06670   0.89860   0.31990   Biso      1.000     O          -0.528219           
         O22       1.0000    0.97830   0.80400   0.39370   Biso      1.000     O          -0.591613           
         O23       1.0000    0.66960   0.84160   0.28410   Biso      1.000     O          -0.583118           
         O24       1.0000    0.60440   0.83490   0.37630   Biso      1.000     O          -0.597001           
         O25       1.0000    0.03710   0.14910   0.21500   Biso      1.000     O          -0.607689           
         O26       1.0000    0.68290   0.18520   0.21200   Biso      1.000     O          -0.574278           
         O27       1.0000    0.52310   0.12130   0.27700   Biso      1.000     O          -0.528827           
         O28       1.0000    0.39560   0.33490   0.12370   Biso      1.000     O          -0.597001           
         O29       1.0000    0.33040   0.34160   0.21590   Biso      1.000     O          -0.583118           
         O30       1.0000    0.02170   0.30400   0.10630   Biso      1.000     O          -0.591613           
         O31       1.0000    0.83040   0.15840   0.78410   Biso      1.000     O          -0.583118           
         O32       1.0000    0.89560   0.16510   0.87630   Biso      1.000     O          -0.597001           
         Zn1       1.0000    0.63304   0.79067   0.65885   Biso      1.000     Zn          0.8869940000000001  
         Zn2       1.0000    0.86696   0.20933   0.15885   Biso      1.000     Zn          0.8869940000000001  
         Zn3       1.0000    0.84771   0.32596   0.77204   Biso      1.000     Zn          0.8566879999999999  
         Zn4       1.0000    0.65229   0.67404   0.27204   Biso      1.000     Zn          0.8566889999999999  
         Zn5       1.0000    0.13304   0.70933   0.34115   Biso      1.000     Zn          0.8869950000000001  
         Zn6       1.0000    0.34771   0.17404   0.22796   Biso      1.000     Zn          0.8566889999999999  
         Zn7       1.0000    0.36696   0.29067   0.84115   Biso      1.000     Zn          0.8869950000000001  
         Zn8       1.0000    0.15229   0.82596   0.72796   Biso      1.000     Zn          0.8566889999999999 