
##########################################################################
#               Crystallographic Information Format file
#               Produced by PyCifRW module
#
#  This is a CIF file.  CIF has been adopted by the International
#  Union of Crystallography as the standard for data archiving and
#  transmission.
#
#  For information on this file format, follow the CIF links at
#  http://www.iucr.org
##########################################################################

data_image0

_cell_length_a                          9.885
_cell_length_b                          10.02
_cell_length_c                          16.438
_cell_angle_alpha                       90
_cell_angle_beta                        90
_cell_angle_gamma                       90
_symmetry_space_group_name_H-M          'P 1'
_symmetry_int_tables_number             1
loop_
  _symmetry_equiv_pos_as_xyz
         'x, y, z' 
loop_
  _atom_site_label
  _atom_site_occupancy
  _atom_site_fract_x
  _atom_site_fract_y
  _atom_site_fract_z
  _atom_site_thermal_displace_type
  _atom_site_B_iso_or_equiv
  _atom_site_type_symbol
  _atom_site_charge
         C1        1.0000    0.85900   0.41200   0.38220   Biso      1.000     C          -0.467119           
         C2        1.0000    0.58400   0.15900   0.45480   Biso      1.000     C          -0.22238  
         C3        1.0000    0.85900   0.08800   0.88220   Biso      1.000     C          -0.46715  
         C4        1.0000    0.91600   0.15900   0.95480   Biso      1.000     C          -0.222394           
         C5        1.0000    0.63900   0.11100   0.53840   Biso      1.000     C          0.607826  
         C6        1.0000    0.86100   0.11100   0.03840   Biso      1.000     C          0.607831  
         C7        1.0000    0.91600   0.34100   0.45480   Biso      1.000     C          -0.222403           
         C8        1.0000    0.86100   0.38900   0.53840   Biso      1.000     C          0.607813  
         C9        1.0000    0.58400   0.34100   0.95480   Biso      1.000     C          -0.222411           
         C10       1.0000    0.36100   0.88900   0.46160   Biso      1.000     C          0.607819  
         C11       1.0000    0.08400   0.84100   0.04520   Biso      1.000     C          -0.222411           
         C12       1.0000    0.14100   0.91200   0.11780   Biso      1.000     C          -0.467109           
         C13       1.0000    0.35900   0.91200   0.61780   Biso      1.000     C          -0.467109           
         C14       1.0000    0.64100   0.08800   0.38220   Biso      1.000     C          -0.467143           
         C15       1.0000    0.41600   0.84100   0.54520   Biso      1.000     C          -0.222402           
         C16       1.0000    0.64100   0.41200   0.88220   Biso      1.000     C          -0.467123           
         C17       1.0000    0.14100   0.58800   0.61780   Biso      1.000     C          -0.467158           
         C18       1.0000    0.08400   0.65900   0.54520   Biso      1.000     C          -0.22238  
         C19       1.0000    0.36100   0.61100   0.96160   Biso      1.000     C          0.607842  
         C20       1.0000    0.13900   0.61100   0.46160   Biso      1.000     C          0.607829  
         C21       1.0000    0.41600   0.65900   0.04520   Biso      1.000     C          -0.222401           
         C22       1.0000    0.35900   0.58800   0.11780   Biso      1.000     C          -0.467156           
         C23       1.0000    0.63900   0.38900   0.03840   Biso      1.000     C          0.607817  
         C24       1.0000    0.13900   0.88900   0.96160   Biso      1.000     C          0.60782   
         H1        1.0000    0.46939   0.35367   0.95449   Biso      1.000     H          0.136669  
         H2        1.0000    0.53061   0.64633   0.04551   Biso      1.000     H          0.136671  
         H3        1.0000    0.37873   0.47710   0.10786   Biso      1.000     H          0.151359  
         H4        1.0000    0.24498   0.60491   0.11918   Biso      1.000     H          0.141347  
         H5        1.0000    0.25502   0.60491   0.61918   Biso      1.000     H          0.141351  
         H6        1.0000    0.39178   0.77000   0.04962   Biso      1.000     H          0.134888  
         H7        1.0000    0.96939   0.64633   0.54551   Biso      1.000     H          0.136661  
         H8        1.0000    0.10822   0.77000   0.54962   Biso      1.000     H          0.134885  
         H9        1.0000    0.24498   0.89509   0.61918   Biso      1.000     H          0.141353  
         H10       1.0000    0.53061   0.85367   0.54551   Biso      1.000     H          0.136668  
         H11       1.0000    0.39178   0.73000   0.54962   Biso      1.000     H          0.13488   
         H12       1.0000    0.74498   0.10491   0.88082   Biso      1.000     H          0.141355  
         H13       1.0000    0.87873   0.97710   0.89214   Biso      1.000     H          0.151362  
         H14       1.0000    0.03061   0.14633   0.95449   Biso      1.000     H          0.136667  
         H15       1.0000    0.89178   0.27000   0.95038   Biso      1.000     H          0.134889  
         H16       1.0000    0.75502   0.39509   0.88082   Biso      1.000     H          0.141351  
         H17       1.0000    0.62127   0.52290   0.89214   Biso      1.000     H          0.151367  
         H18       1.0000    0.12127   0.47710   0.60786   Biso      1.000     H          0.151362  
         H19       1.0000    0.37873   0.02290   0.60786   Biso      1.000     H          0.151368  
         H20       1.0000    0.60822   0.23000   0.95038   Biso      1.000     H          0.134882  
         H21       1.0000    0.75502   0.10491   0.38082   Biso      1.000     H          0.141351  
         H22       1.0000    0.60822   0.27000   0.45038   Biso      1.000     H          0.134886  
         H23       1.0000    0.03061   0.35367   0.45449   Biso      1.000     H          0.136668  
         H24       1.0000    0.87873   0.52290   0.39214   Biso      1.000     H          0.151365  
         H25       1.0000    0.89178   0.23000   0.45038   Biso      1.000     H          0.134882  
         H26       1.0000    0.12127   0.02290   0.10786   Biso      1.000     H          0.151367  
         H27       1.0000    0.74498   0.39509   0.38082   Biso      1.000     H          0.141349  
         H28       1.0000    0.25502   0.89509   0.11918   Biso      1.000     H          0.141351  
         H29       1.0000    0.62127   0.97710   0.39214   Biso      1.000     H          0.151364  
         H30       1.0000    0.96939   0.85367   0.04551   Biso      1.000     H          0.136672  
         H31       1.0000    0.10822   0.73000   0.04962   Biso      1.000     H          0.134884  
         H32       1.0000    0.46939   0.14633   0.45449   Biso      1.000     H          0.136672  
         O1        1.0000    0.72700   0.02600   0.54140   Biso      1.000     O          -0.341103           
         O2        1.0000    0.58400   0.16600   0.59870   Biso      1.000     O          -0.528933           
         O3        1.0000    0.41600   0.83400   0.40130   Biso      1.000     O          -0.528859           
         O4        1.0000    0.43360   0.78930   0.21240   Biso      1.000     O          -0.664511           
         O5        1.0000    0.42890   0.08260   0.28090   Biso      1.000     O          -0.633975           
         O6        1.0000    0.16200   0.91860   0.27980   Biso      1.000     O          -0.667061           
         O7        1.0000    0.41600   0.66600   0.90130   Biso      1.000     O          -0.528939           
         O8        1.0000    0.07110   0.08260   0.78090   Biso      1.000     O          -0.633964           
         O9        1.0000    0.33800   0.91860   0.77980   Biso      1.000     O          -0.667055           
         O10       1.0000    0.57110   0.91740   0.71910   Biso      1.000     O          -0.634028           
         O11       1.0000    0.06640   0.78930   0.71240   Biso      1.000     O          -0.664518           
         O12       1.0000    0.08400   0.83400   0.90130   Biso      1.000     O          -0.528823           
         O13       1.0000    0.22700   0.97400   0.95860   Biso      1.000     O          -0.341152           
         O14       1.0000    0.22700   0.52600   0.45860   Biso      1.000     O          -0.341056           
         O15       1.0000    0.42890   0.41740   0.78090   Biso      1.000     O          -0.634007           
         O16       1.0000    0.08400   0.66600   0.40130   Biso      1.000     O          -0.528939           
         O17       1.0000    0.06640   0.71070   0.21240   Biso      1.000     O          -0.664531           
         O18       1.0000    0.43360   0.71070   0.71240   Biso      1.000     O          -0.664537           
         O19       1.0000    0.83800   0.08140   0.72020   Biso      1.000     O          -0.66707  
         O20       1.0000    0.56640   0.21070   0.78760   Biso      1.000     O          -0.664536           
         O21       1.0000    0.07110   0.41740   0.28090   Biso      1.000     O          -0.634016           
         O22       1.0000    0.83800   0.41860   0.22020   Biso      1.000     O          -0.667077           
         O23       1.0000    0.57110   0.58260   0.21910   Biso      1.000     O          -0.633954           
         O24       1.0000    0.56640   0.28930   0.28760   Biso      1.000     O          -0.664531           
         O25       1.0000    0.58400   0.33400   0.09870   Biso      1.000     O          -0.528848           
         O26       1.0000    0.72700   0.47400   0.04140   Biso      1.000     O          -0.341136           
         O27       1.0000    0.77300   0.02600   0.04140   Biso      1.000     O          -0.341131           
         O28       1.0000    0.91600   0.16600   0.09870   Biso      1.000     O          -0.528925           
         O29       1.0000    0.93360   0.21070   0.28760   Biso      1.000     O          -0.664539           
         O30       1.0000    0.92890   0.91740   0.21910   Biso      1.000     O          -0.634016           
         O31       1.0000    0.27300   0.97400   0.45860   Biso      1.000     O          -0.341149           
         O32       1.0000    0.66200   0.41860   0.72020   Biso      1.000     O          -0.667083           
         O33       1.0000    0.66200   0.08140   0.22020   Biso      1.000     O          -0.667074           
         O34       1.0000    0.93360   0.28930   0.78760   Biso      1.000     O          -0.66452  
         O35       1.0000    0.91600   0.33400   0.59870   Biso      1.000     O          -0.528865           
         O36       1.0000    0.77300   0.47400   0.54140   Biso      1.000     O          -0.341101           
         O37       1.0000    0.33800   0.58140   0.27980   Biso      1.000     O          -0.667087           
         O38       1.0000    0.27300   0.52600   0.95860   Biso      1.000     O          -0.341118           
         O39       1.0000    0.92890   0.58260   0.71910   Biso      1.000     O          -0.633953           
         O40       1.0000    0.16200   0.58140   0.77980   Biso      1.000     O          -0.667094           
         P1        1.0000    0.07290   0.86270   0.21280   Biso      1.000     P          1.324374  
         P2        1.0000    0.42710   0.86270   0.71280   Biso      1.000     P          1.324357  
         P3        1.0000    0.57290   0.36270   0.78720   Biso      1.000     P          1.324366  
         P4        1.0000    0.42710   0.63730   0.21280   Biso      1.000     P          1.324361  
         P5        1.0000    0.57290   0.13730   0.28720   Biso      1.000     P          1.324358  
         P6        1.0000    0.07290   0.63730   0.71280   Biso      1.000     P          1.324354  
         P7        1.0000    0.92710   0.13730   0.78720   Biso      1.000     P          1.324348  
         P8        1.0000    0.92710   0.36270   0.28720   Biso      1.000     P          1.324382  
         Zn1       1.0000    0.64380   0.40340   0.20335   Biso      1.000     Zn          1.028669  
         Zn2       1.0000    0.35620   0.90340   0.29665   Biso      1.000     Zn          1.028674  
         Zn3       1.0000    0.14380   0.90340   0.79665   Biso      1.000     Zn          1.028676  
         Zn4       1.0000    0.64380   0.09660   0.70335   Biso      1.000     Zn          1.028698  
         Zn5       1.0000    0.85620   0.09660   0.20335   Biso      1.000     Zn          1.028685  
         Zn6       1.0000    0.85620   0.40340   0.70335   Biso      1.000     Zn          1.028667  
         Zn7       1.0000    0.35620   0.59660   0.79665   Biso      1.000     Zn          1.028678  
         Zn8       1.0000    0.14380   0.59660   0.29665   Biso      1.000     Zn          1.02867 