
##########################################################################
#               Crystallographic Information Format file
#               Produced by PyCifRW module
#
#  This is a CIF file.  CIF has been adopted by the International
#  Union of Crystallography as the standard for data archiving and
#  transmission.
#
#  For information on this file format, follow the CIF links at
#  http://www.iucr.org
##########################################################################

data_image0

_cell_length_a                          11.5585
_cell_length_b                          11.5585
_cell_length_c                          25.819
_cell_angle_alpha                       90
_cell_angle_beta                        90
_cell_angle_gamma                       90
_symmetry_space_group_name_H-M          'P 1'
_symmetry_int_tables_number             1
loop_
  _symmetry_equiv_pos_as_xyz
         'x, y, z' 
loop_
  _atom_site_label
  _atom_site_occupancy
  _atom_site_fract_x
  _atom_site_fract_y
  _atom_site_fract_z
  _atom_site_thermal_displace_type
  _atom_site_B_iso_or_equiv
  _atom_site_type_symbol
  _atom_site_charge
         C1        1.0000    0.36320   0.06330   0.71781   Biso      1.000     C          0.22197199999999997           
         C2        1.0000    0.39220   0.14570   0.32450   Biso      1.000     C          -0.512971           
         C3        1.0000    0.36320   0.06330   0.28219   Biso      1.000     C          0.221971  
         C4        1.0000    0.60780   0.85430   0.32450   Biso      1.000     C          -0.512971           
         C5        1.0000    0.63680   0.93670   0.28219   Biso      1.000     C          0.22197199999999997           
         C6        1.0000    0.85430   0.60780   0.67550   Biso      1.000     C          -0.512971           
         C7        1.0000    0.93670   0.63680   0.71781   Biso      1.000     C          0.22197199999999997           
         C8        1.0000    0.14570   0.39220   0.67550   Biso      1.000     C          -0.512971           
         C9        1.0000    0.06330   0.36320   0.71781   Biso      1.000     C          0.22197199999999997           
         C10       1.0000    0.60780   0.14570   0.17550   Biso      1.000     C          -0.512971           
         C11       1.0000    0.63680   0.06330   0.21781   Biso      1.000     C          0.221971  
         C12       1.0000    0.39220   0.85430   0.17550   Biso      1.000     C          -0.512971           
         C13       1.0000    0.93670   0.36320   0.78219   Biso      1.000     C          0.221971  
         C14       1.0000    0.36320   0.93670   0.21781   Biso      1.000     C          0.22197199999999997           
         C15       1.0000    0.93670   0.36320   0.21781   Biso      1.000     C          0.22197199999999997           
         C16       1.0000    0.14570   0.60780   0.17550   Biso      1.000     C          -0.512971           
         C17       1.0000    0.06330   0.63680   0.21781   Biso      1.000     C          0.22197199999999997           
         C18       1.0000    0.60780   0.85430   0.67550   Biso      1.000     C          -0.512971           
         C19       1.0000    0.63680   0.93670   0.71781   Biso      1.000     C          0.22197199999999997           
         C20       1.0000    0.39220   0.14570   0.67550   Biso      1.000     C          -0.512971           
         C21       1.0000    0.14570   0.39220   0.32450   Biso      1.000     C          -0.512971           
         C22       1.0000    0.06330   0.36320   0.28219   Biso      1.000     C          0.221971  
         C23       1.0000    0.85430   0.60780   0.32450   Biso      1.000     C          -0.512971           
         C24       1.0000    0.93670   0.63680   0.28219   Biso      1.000     C          0.221971  
         C25       1.0000    0.36320   0.93670   0.78219   Biso      1.000     C          0.221971  
         C26       1.0000    0.85430   0.39220   0.17550   Biso      1.000     C          -0.512971           
         C27       1.0000    0.60780   0.14570   0.82450   Biso      1.000     C          -0.512972           
         C28       1.0000    0.85430   0.39220   0.82450   Biso      1.000     C          -0.512971           
         C29       1.0000    0.14570   0.60780   0.82450   Biso      1.000     C          -0.512971           
         C30       1.0000    0.00000   0.56380   0.75000   Biso      1.000     C          -0.15578399999999998          
         C31       1.0000    0.00000   0.43620   0.75000   Biso      1.000     C          -0.155782           
         C32       1.0000    0.56380   0.00000   0.25000   Biso      1.000     C          -0.155782           
         C33       1.0000    0.43620   0.00000   0.25000   Biso      1.000     C          -0.155782           
         C34       1.0000    0.00000   0.43620   0.25000   Biso      1.000     C          -0.155782           
         C35       1.0000    0.00000   0.56380   0.25000   Biso      1.000     C          -0.155782           
         C36       1.0000    0.43620   0.00000   0.75000   Biso      1.000     C          -0.155782           
         C37       1.0000    0.56380   0.00000   0.75000   Biso      1.000     C          -0.15578399999999998          
         C38       1.0000    0.00000   0.00000   0.05450   Biso      1.000     C          -0.02144  
         C39       1.0000    0.00000   0.00000   0.11180   Biso      1.000     C          0.594561  
         C40       1.0000    0.00000   0.00000   0.55450   Biso      1.000     C          -0.02144  
         C41       1.0000    0.06330   0.63680   0.78219   Biso      1.000     C          0.22197199999999997           
         C42       1.0000    0.00000   0.00000   0.61180   Biso      1.000     C          0.594561  
         C43       1.0000    0.00000   0.00000   0.38820   Biso      1.000     C          0.594561  
         C44       1.0000    0.00000   0.00000   0.94550   Biso      1.000     C          -0.02145  
         C45       1.0000    0.00000   0.00000   0.88820   Biso      1.000     C          0.594561  
         C46       1.0000    0.92820   0.07180   0.02610   Biso      1.000     C          -0.10030399999999999          
         C47       1.0000    0.07180   0.92820   0.02610   Biso      1.000     C          -0.10030399999999999          
         C48       1.0000    0.92820   0.92820   0.52610   Biso      1.000     C          -0.10030399999999999          
         C49       1.0000    0.07180   0.07180   0.52610   Biso      1.000     C          -0.10030399999999999          
         C50       1.0000    0.07180   0.07180   0.47390   Biso      1.000     C          -0.100257           
         C51       1.0000    0.92820   0.92820   0.47390   Biso      1.000     C          -0.100257           
         C52       1.0000    0.07180   0.92820   0.97390   Biso      1.000     C          -0.100257           
         C53       1.0000    0.92820   0.07180   0.97390   Biso      1.000     C          -0.100257           
         C54       1.0000    0.00000   0.00000   0.44550   Biso      1.000     C          -0.02145  
         C55       1.0000    0.63680   0.06330   0.78219   Biso      1.000     C          0.22197199999999997           
         C56       1.0000    0.39220   0.85430   0.82450   Biso      1.000     C          -0.512971           
         H1        1.0000    0.87630   0.12370   0.95560   Biso      1.000     H          0.11102999999999999           
         H2        1.0000    0.43800   0.79030   0.18960   Biso      1.000     H          0.166158  
         H3        1.0000    0.32070   0.82390   0.16030   Biso      1.000     H          0.158103  
         H4        1.0000    0.89450   0.43710   0.14880   Biso      1.000     H          0.168096  
         H5        1.0000    0.79030   0.43800   0.18960   Biso      1.000     H          0.166158  
         H6        1.0000    0.82390   0.32070   0.16030   Biso      1.000     H          0.158103  
         H7        1.0000    0.10550   0.56290   0.14880   Biso      1.000     H          0.168096  
         H8        1.0000    0.20970   0.56200   0.18960   Biso      1.000     H          0.166158  
         H9        1.0000    0.17610   0.67930   0.16030   Biso      1.000     H          0.158103  
         H10       1.0000    0.10550   0.56290   0.85120   Biso      1.000     H          0.168096  
         H11       1.0000    0.56200   0.79030   0.68960   Biso      1.000     H          0.166158  
         H12       1.0000    0.67930   0.82390   0.66030   Biso      1.000     H          0.158103  
         H13       1.0000    0.43710   0.10550   0.64880   Biso      1.000     H          0.168096  
         H14       1.0000    0.43710   0.89450   0.14880   Biso      1.000     H          0.168096  
         H15       1.0000    0.43800   0.20970   0.68960   Biso      1.000     H          0.166158  
         H16       1.0000    0.10550   0.43710   0.35120   Biso      1.000     H          0.168096  
         H17       1.0000    0.20970   0.43800   0.31040   Biso      1.000     H          0.166158  
         H18       1.0000    0.17610   0.32070   0.33970   Biso      1.000     H          0.158103  
         H19       1.0000    0.89450   0.56290   0.35120   Biso      1.000     H          0.168096  
         H20       1.0000    0.79030   0.56200   0.31040   Biso      1.000     H          0.166158  
         H21       1.0000    0.82390   0.67930   0.33970   Biso      1.000     H          0.158103  
         H22       1.0000    0.43710   0.89450   0.85120   Biso      1.000     H          0.168096  
         H23       1.0000    0.43800   0.79030   0.81040   Biso      1.000     H          0.166158  
         H24       1.0000    0.32070   0.82390   0.83970   Biso      1.000     H          0.158103  
         H25       1.0000    0.56290   0.10550   0.85120   Biso      1.000     H          0.168096  
         H26       1.0000    0.56200   0.20970   0.81040   Biso      1.000     H          0.166158  
         H27       1.0000    0.67930   0.17610   0.83970   Biso      1.000     H          0.158103  
         H28       1.0000    0.32070   0.17610   0.66030   Biso      1.000     H          0.158103  
         H29       1.0000    0.67930   0.17610   0.16030   Biso      1.000     H          0.158103  
         H30       1.0000    0.56290   0.89450   0.64880   Biso      1.000     H          0.168096  
         H31       1.0000    0.56290   0.10550   0.14880   Biso      1.000     H          0.168096  
         H32       1.0000    0.12370   0.87630   0.95560   Biso      1.000     H          0.111029  
         H33       1.0000    0.87630   0.87630   0.45560   Biso      1.000     H          0.11102999999999999           
         H34       1.0000    0.56200   0.20970   0.18960   Biso      1.000     H          0.166158  
         H35       1.0000    0.12370   0.12370   0.54440   Biso      1.000     H          0.11103299999999999           
         H36       1.0000    0.87630   0.87630   0.54440   Biso      1.000     H          0.11103199999999999           
         H37       1.0000    0.12370   0.87630   0.04440   Biso      1.000     H          0.11103199999999999           
         H38       1.0000    0.87630   0.12370   0.04440   Biso      1.000     H          0.11103199999999999           
         H39       1.0000    0.20970   0.56200   0.81040   Biso      1.000     H          0.166158  
         H40       1.0000    0.17610   0.67930   0.83970   Biso      1.000     H          0.158103  
         H41       1.0000    0.89450   0.43710   0.85120   Biso      1.000     H          0.168096  
         H42       1.0000    0.79030   0.43800   0.81040   Biso      1.000     H          0.166158  
         H43       1.0000    0.82390   0.32070   0.83970   Biso      1.000     H          0.158103  
         H44       1.0000    0.12370   0.12370   0.45560   Biso      1.000     H          0.111029  
         H45       1.0000    0.43800   0.20970   0.31040   Biso      1.000     H          0.166158  
         H46       1.0000    0.43710   0.10550   0.35120   Biso      1.000     H          0.168096  
         H47       1.0000    0.17610   0.32070   0.66030   Biso      1.000     H          0.158103  
         H48       1.0000    0.10550   0.43710   0.64880   Biso      1.000     H          0.168096  
         H49       1.0000    0.82390   0.67930   0.66030   Biso      1.000     H          0.158103  
         H50       1.0000    0.79030   0.56200   0.68960   Biso      1.000     H          0.166158  
         H51       1.0000    0.89450   0.56290   0.64880   Biso      1.000     H          0.168096  
         H52       1.0000    0.20970   0.43800   0.68960   Biso      1.000     H          0.166158  
         H53       1.0000    0.56200   0.79030   0.31040   Biso      1.000     H          0.166158  
         H54       1.0000    0.56290   0.89450   0.35120   Biso      1.000     H          0.168096  
         H55       1.0000    0.32070   0.17610   0.33970   Biso      1.000     H          0.158103  
         H56       1.0000    0.67930   0.82390   0.33970   Biso      1.000     H          0.158103  
         N1        1.0000    0.25240   0.03950   0.73000   Biso      1.000     N          -0.27619099999999996          
         N2        1.0000    0.74760   0.96050   0.27000   Biso      1.000     N          -0.27619099999999996          
         N3        1.0000    0.96050   0.74760   0.73000   Biso      1.000     N          -0.276192           
         N4        1.0000    0.03950   0.25240   0.73000   Biso      1.000     N          -0.27619099999999996          
         N5        1.0000    0.74760   0.03950   0.23000   Biso      1.000     N          -0.27618000000000004          
         N6        1.0000    0.25240   0.96050   0.23000   Biso      1.000     N          -0.27619099999999996          
         N7        1.0000    0.25240   0.03950   0.27000   Biso      1.000     N          -0.276179           
         N8        1.0000    0.96050   0.25240   0.23000   Biso      1.000     N          -0.27619099999999996          
         N9        1.0000    0.03950   0.74760   0.23000   Biso      1.000     N          -0.27619099999999996          
         N10       1.0000    0.74760   0.96050   0.73000   Biso      1.000     N          -0.276192           
         N11       1.0000    0.03950   0.25240   0.27000   Biso      1.000     N          -0.276179           
         N12       1.0000    0.03950   0.74760   0.77000   Biso      1.000     N          -0.276179           
         N13       1.0000    0.25240   0.96050   0.77000   Biso      1.000     N          -0.276179           
         N14       1.0000    0.74760   0.03950   0.77000   Biso      1.000     N          -0.27618000000000004          
         N15       1.0000    0.96050   0.25240   0.77000   Biso      1.000     N          -0.27618000000000004          
         N16       1.0000    0.96050   0.74760   0.27000   Biso      1.000     N          -0.27618000000000004          
         O1        1.0000    0.93080   0.06920   0.13474   Biso      1.000     O          -0.537457           
         O2        1.0000    0.06920   0.93080   0.13474   Biso      1.000     O          -0.537457           
         O3        1.0000    0.06920   0.06920   0.63474   Biso      1.000     O          -0.537457           
         O4        1.0000    0.06920   0.06920   0.36526   Biso      1.000     O          -0.537457           
         O5        1.0000    0.93080   0.93080   0.36526   Biso      1.000     O          -0.537457           
         O6        1.0000    0.06920   0.93080   0.86526   Biso      1.000     O          -0.537457           
         O7        1.0000    0.93080   0.06920   0.86526   Biso      1.000     O          -0.537457           
         O8        1.0000    0.93080   0.93080   0.63474   Biso      1.000     O          -0.537457           
         O9        1.0000    0.00000   0.00000   0.25000   Biso      1.000     O          -0.871049           
         O10       1.0000    0.00000   0.00000   0.75000   Biso      1.000     O          -0.8710479999999999           
         Zn1       1.0000    0.90122   0.09878   0.20814   Biso      1.000     Zn          0.7633489999999999  
         Zn2       1.0000    0.09878   0.90122   0.20814   Biso      1.000     Zn          0.763351  
         Zn3       1.0000    0.90122   0.90122   0.70814   Biso      1.000     Zn          0.763351  
         Zn4       1.0000    0.09878   0.09878   0.70814   Biso      1.000     Zn          0.763351  
         Zn5       1.0000    0.09878   0.09878   0.29186   Biso      1.000     Zn          0.7633479999999999  
         Zn6       1.0000    0.90122   0.90122   0.29186   Biso      1.000     Zn          0.76335   
         Zn7       1.0000    0.09878   0.90122   0.79186   Biso      1.000     Zn          0.7633489999999999  
         Zn8       1.0000    0.90122   0.09878   0.79186   Biso      1.000     Zn          0.7633489999999999 