
##########################################################################
#               Crystallographic Information Format file
#               Produced by PyCifRW module
#
#  This is a CIF file.  CIF has been adopted by the International
#  Union of Crystallography as the standard for data archiving and
#  transmission.
#
#  For information on this file format, follow the CIF links at
#  http://www.iucr.org
##########################################################################

data_image0

_cell_length_a                          9.3865
_cell_length_b                          17.4469
_cell_length_c                          17.4469
_cell_angle_alpha                       104.365
_cell_angle_beta                        102.823
_cell_angle_gamma                       77.1768
_symmetry_space_group_name_H-M          'P 1'
_symmetry_int_tables_number             1
loop_
  _symmetry_equiv_pos_as_xyz
         'x, y, z' 
loop_
  _atom_site_label
  _atom_site_occupancy
  _atom_site_fract_x
  _atom_site_fract_y
  _atom_site_fract_z
  _atom_site_thermal_displace_type
  _atom_site_B_iso_or_equiv
  _atom_site_type_symbol
  _atom_site_charge
         C1        1.0000    0.07870   0.21432   0.43596   Biso      1.000     C          0.020231  
         C2        1.0000    0.41730   0.38591   0.53457   Biso      1.000     C          -0.20938800000000002          
         C3        1.0000    0.63740   0.34628   0.47452   Biso      1.000     C          -0.2205   
         C4        1.0000    0.41990   0.46180   0.29540   Biso      1.000     C          -0.255363           
         C5        1.0000    0.29510   0.69700   0.46784   Biso      1.000     C          -0.076402           
         C6        1.0000    0.42080   0.49630   0.16550   Biso      1.000     C          0.6280439999999999  
         C7        1.0000    0.48620   0.34218   0.59220   Biso      1.000     C          -0.07420299999999999          
         C8        1.0000    0.46350   0.09079   0.20621   Biso      1.000     C          -0.21060700000000002          
         C9        1.0000    0.63050   0.30132   0.59206   Biso      1.000     C          -0.070328           
         C10       1.0000    0.13050   0.40794   0.69868   Biso      1.000     C          -0.070339           
         C11       1.0000    0.98620   0.40780   0.65782   Biso      1.000     C          -0.074206           
         C12       1.0000    0.81350   0.28471   0.02977   Biso      1.000     C          -0.049187           
         C13       1.0000    0.08010   0.29540   0.46180   Biso      1.000     C          -0.255382           
         C14       1.0000    0.26470   0.89858   0.69442   Biso      1.000     C          -0.081874           
         C15       1.0000    0.92950   0.69249   0.67371   Biso      1.000     C          -0.354742           
         C16       1.0000    0.91730   0.46543   0.61409   Biso      1.000     C          -0.209371           
         C17       1.0000    0.07050   0.30751   0.32629   Biso      1.000     C          -0.354736           
         C18       1.0000    0.49310   0.38784   0.47564   Biso      1.000     C          0.277376  
         C19       1.0000    0.00690   0.47564   0.38784   Biso      1.000     C          0.277388  
         C20       1.0000    0.57330   0.64483   0.82087   Biso      1.000     C          -0.256554           
         C21       1.0000    0.34570   0.83350   0.72330   Biso      1.000     C          -0.223131           
         C22       1.0000    0.86260   0.47452   0.34628   Biso      1.000     C          -0.22058000000000003          
         C23       1.0000    0.86950   0.59206   0.30132   Biso      1.000     C          -0.07033400000000001          
         C24       1.0000    0.20490   0.46784   0.69700   Biso      1.000     C          -0.07639  
         C25       1.0000    0.15430   0.72330   0.83350   Biso      1.000     C          -0.22315900000000002          
         C26       1.0000    0.79190   0.65674   0.25606   Biso      1.000     C          0.650804  
         C27       1.0000    0.96350   0.79379   0.90921   Biso      1.000     C          -0.21059  
         C28       1.0000    0.50690   0.61216   0.52436   Biso      1.000     C          0.277352  
         C29       1.0000    0.07330   0.17913   0.35517   Biso      1.000     C          -0.25657399999999997          
         C30       1.0000    0.58270   0.61409   0.46543   Biso      1.000     C          -0.209398           
         C31       1.0000    0.51380   0.65782   0.40780   Biso      1.000     C          -0.0742   
         C32       1.0000    0.57390   0.59329   0.65931   Biso      1.000     C          0.300138  
         C33       1.0000    0.92130   0.78568   0.56404   Biso      1.000     C          0.020234000000000002          
         C34       1.0000    0.01990   0.77457   0.83963   Biso      1.000     C          0.284523  
         C35       1.0000    0.48010   0.83963   0.77457   Biso      1.000     C          0.284526  
         C36       1.0000    0.94970   0.23514   0.02546   Biso      1.000     C          -0.0718   
         C37       1.0000    0.58010   0.53820   0.70460   Biso      1.000     C          -0.255373           
         C38       1.0000    0.68650   0.02977   0.28471   Biso      1.000     C          -0.049172           
         C39       1.0000    0.98010   0.22543   0.16037   Biso      1.000     C          0.284538  
         C40       1.0000    0.91990   0.70460   0.53820   Biso      1.000     C          -0.255372           
         C41       1.0000    0.42610   0.40671   0.34069   Biso      1.000     C          0.300136  
         C42       1.0000    0.22010   0.04502   0.68918   Biso      1.000     C          0.582688  
         C43       1.0000    0.57920   0.50370   0.83450   Biso      1.000     C          0.6280640000000001  
         C44       1.0000    0.92670   0.82087   0.64483   Biso      1.000     C          -0.256576           
         C45       1.0000    0.13740   0.52548   0.65372   Biso      1.000     C          -0.220547           
         C46       1.0000    0.42670   0.35517   0.17913   Biso      1.000     C          -0.256579           
         C47       1.0000    0.84570   0.27670   0.16650   Biso      1.000     C          -0.22313000000000002          
         C48       1.0000    0.06670   0.22589   0.30111   Biso      1.000     C          0.298873  
         C49       1.0000    0.70490   0.30300   0.53216   Biso      1.000     C          -0.076383           
         C50       1.0000    0.29190   0.74394   0.34326   Biso      1.000     C          0.650802  
         C51       1.0000    0.43330   0.30111   0.22589   Biso      1.000     C          0.298881  
         C52       1.0000    0.92610   0.65931   0.59329   Biso      1.000     C          0.300126  
         C53       1.0000    0.55030   0.02546   0.23514   Biso      1.000     C          -0.0718   
         C54       1.0000    0.57050   0.67371   0.69249   Biso      1.000     C          -0.354698           
         C55       1.0000    0.05030   0.76486   0.97454   Biso      1.000     C          -0.071806           
         C56       1.0000    0.51990   0.16037   0.22543   Biso      1.000     C          0.284526  
         C57       1.0000    0.76470   0.30558   0.10142   Biso      1.000     C          -0.081839           
         C58       1.0000    0.79510   0.53216   0.30300   Biso      1.000     C          -0.076388           
         C59       1.0000    0.01380   0.59220   0.34218   Biso      1.000     C          -0.074209           
         C60       1.0000    0.42130   0.43596   0.21432   Biso      1.000     C          0.020219  
         C61       1.0000    0.31350   0.97023   0.71529   Biso      1.000     C          -0.049172           
         C62       1.0000    0.73530   0.10142   0.30558   Biso      1.000     C          -0.08187699999999999          
         C63       1.0000    0.92080   0.83450   0.50370   Biso      1.000     C          0.627975  
         C64       1.0000    0.07390   0.34069   0.40671   Biso      1.000     C          0.300136  
         C65       1.0000    0.42950   0.32629   0.30751   Biso      1.000     C          -0.354711           
         C66       1.0000    0.20810   0.34326   0.74394   Biso      1.000     C          0.650841  
         C67       1.0000    0.08270   0.53457   0.38591   Biso      1.000     C          -0.20938099999999998          
         C68       1.0000    0.23530   0.69442   0.89858   Biso      1.000     C          -0.081873           
         C69       1.0000    0.56670   0.69889   0.77411   Biso      1.000     C          0.298885  
         C70       1.0000    0.36260   0.65372   0.52548   Biso      1.000     C          -0.22050300000000003          
         C71       1.0000    0.77990   0.95498   0.31082   Biso      1.000     C          0.582685  
         C72       1.0000    0.72010   0.31082   0.95498   Biso      1.000     C          0.582715  
         C73       1.0000    0.44970   0.97454   0.76486   Biso      1.000     C          -0.071822           
         C74       1.0000    0.07920   0.16550   0.49630   Biso      1.000     C          0.627973  
         C75       1.0000    0.53650   0.90921   0.79379   Biso      1.000     C          -0.210589           
         C76       1.0000    0.36950   0.69868   0.40794   Biso      1.000     C          -0.070316           
         C77       1.0000    0.93330   0.77411   0.69889   Biso      1.000     C          0.29888000000000003           
         C78       1.0000    0.03650   0.20621   0.09079   Biso      1.000     C          -0.210558           
         C79       1.0000    0.70810   0.25606   0.65674   Biso      1.000     C          0.650828  
         C80       1.0000    0.65430   0.16650   0.27670   Biso      1.000     C          -0.22314499999999998          
         C81       1.0000    0.57870   0.56404   0.78568   Biso      1.000     C          0.020212  
         C82       1.0000    0.18650   0.71529   0.97023   Biso      1.000     C          -0.049187           
         C83       1.0000    0.27990   0.68918   0.04502   Biso      1.000     C          0.582693  
         C84       1.0000    0.99310   0.52436   0.61216   Biso      1.000     C          0.277413  
         H1        1.0000    0.51580   0.97700   0.22080   Biso      1.000     H          0.121857  
         H2        1.0000    0.81230   0.43480   0.34800   Biso      1.000     H          0.126999  
         H3        1.0000    0.57070   0.70990   0.66130   Biso      1.000     H          0.156251  
         H4        1.0000    0.82070   0.46490   0.58610   Biso      1.000     H          0.131052  
         H5        1.0000    0.32550   0.66000   0.89420   Biso      1.000     H          0.10762100000000001           
         H6        1.0000    0.93560   0.36840   0.66000   Biso      1.000     H          0.112131  
         H7        1.0000    0.69900   0.53130   0.27450   Biso      1.000     H          0.11100399999999999           
         H8        1.0000    0.62990   0.91240   0.82520   Biso      1.000     H          0.14171   
         H9        1.0000    0.87010   0.82520   0.91240   Biso      1.000     H          0.141709  
         H10       1.0000    0.91490   0.68070   0.48390   Biso      1.000     H          0.14143499999999998           
         H11       1.0000    0.18920   0.70860   0.78500   Biso      1.000     H          0.12091700000000001           
         H12       1.0000    0.06440   0.63160   0.34000   Biso      1.000     H          0.11212799999999999           
         H13       1.0000    0.42600   0.33760   0.12420   Biso      1.000     H          0.151653  
         H14       1.0000    0.17450   0.89420   0.66000   Biso      1.000     H          0.107647  
         H15       1.0000    0.01580   0.77920   0.02300   Biso      1.000     H          0.12185599999999999           
         H16       1.0000    0.32070   0.41390   0.53510   Biso      1.000     H          0.13106800000000002           
         H17       1.0000    0.12990   0.17480   0.08760   Biso      1.000     H          0.141726  
         H18       1.0000    0.42930   0.29010   0.33870   Biso      1.000     H          0.15624200000000002           
         H19       1.0000    0.31080   0.78500   0.70860   Biso      1.000     H          0.12091099999999999           
         H20       1.0000    0.18770   0.56520   0.65200   Biso      1.000     H          0.12702   
         H21       1.0000    0.31230   0.65200   0.56520   Biso      1.000     H          0.12698800000000002           
         H22       1.0000    0.67930   0.58610   0.46490   Biso      1.000     H          0.131056  
         H23       1.0000    0.07070   0.33870   0.29010   Biso      1.000     H          0.15624000000000002           
         H24       1.0000    0.81080   0.29140   0.21500   Biso      1.000     H          0.12093699999999999           
         H25       1.0000    0.19900   0.72550   0.46870   Biso      1.000     H          0.111016  
         H26       1.0000    0.57400   0.66240   0.87580   Biso      1.000     H          0.151667  
         H27       1.0000    0.92930   0.66130   0.70990   Biso      1.000     H          0.15623399999999998           
         H28       1.0000    0.80100   0.27450   0.53130   Biso      1.000     H          0.11102200000000001           
         H29       1.0000    0.98420   0.22080   0.97700   Biso      1.000     H          0.121874  
         H30       1.0000    0.48420   0.02300   0.77920   Biso      1.000     H          0.121852  
         H31       1.0000    0.17930   0.53510   0.41390   Biso      1.000     H          0.13103900000000002           
         H32       1.0000    0.43560   0.34000   0.63160   Biso      1.000     H          0.112126  
         H33       1.0000    0.41490   0.51610   0.31930   Biso      1.000     H          0.141432  
         H34       1.0000    0.92600   0.87580   0.66240   Biso      1.000     H          0.151652  
         H35       1.0000    0.08510   0.31930   0.51610   Biso      1.000     H          0.141428  
         H36       1.0000    0.56440   0.66000   0.36840   Biso      1.000     H          0.11212799999999999           
         H37       1.0000    0.58510   0.48390   0.68070   Biso      1.000     H          0.141424  
         H38       1.0000    0.68770   0.34800   0.43480   Biso      1.000     H          0.127004  
         H39       1.0000    0.68920   0.21500   0.29140   Biso      1.000     H          0.120904  
         H40       1.0000    0.07400   0.12420   0.33760   Biso      1.000     H          0.151668  
         H41       1.0000    0.37010   0.08760   0.17480   Biso      1.000     H          0.141711  
         H42       1.0000    0.30100   0.46870   0.72550   Biso      1.000     H          0.11101400000000002           
         H43       1.0000    0.67450   0.34000   0.10580   Biso      1.000     H          0.107642  
         H44       1.0000    0.82550   0.10580   0.34000   Biso      1.000     H          0.10764000000000001           
         Mn1       1.0000    0.44067   0.68148   0.18678   Biso      1.000     Mn          1.049156  
         Mn2       1.0000    0.00000   0.00000   0.50000   Biso      1.000     Mn          1.186181  
         Mn3       1.0000    0.94067   0.81322   0.31852   Biso      1.000     Mn          1.049202  
         Mn4       1.0000    0.50000   0.50000   0.00000   Biso      1.000     Mn          1.186531  
         Mn5       1.0000    0.05933   0.18678   0.68148   Biso      1.000     Mn          1.049245  
         Mn6       1.0000    0.55933   0.31852   0.81322   Biso      1.000     Mn          1.049393  
         O1        1.0000    0.56740   0.77877   0.81207   Biso      1.000     O          -0.22966999999999999          
         O2        1.0000    0.57960   0.56335   0.57847   Biso      1.000     O          -0.22594899999999998          
         O3        1.0000    0.35680   0.74534   0.28956   Biso      1.000     O          -0.564652           
         O4        1.0000    0.59600   0.35778   0.95782   Biso      1.000     O          -0.637101           
         O5        1.0000    0.06820   0.09261   0.46821   Biso      1.000     O          -0.604208           
         O6        1.0000    0.07960   0.42153   0.43665   Biso      1.000     O          -0.22595300000000001          
         O7        1.0000    0.40400   0.64222   0.04218   Biso      1.000     O          -0.637135           
         O8        1.0000    0.09060   0.19988   0.56842   Biso      1.000     O          -0.5457810000000001           
         O9        1.0000    0.06740   0.18793   0.22123   Biso      1.000     O          -0.22962800000000003          
         O10       1.0000    0.59060   0.43158   0.80012   Biso      1.000     O          -0.5458069999999999           
         O11       1.0000    0.85680   0.71044   0.25466   Biso      1.000     O          -0.564655           
         O12       1.0000    0.26660   0.11058   0.71852   Biso      1.000     O          -0.533831           
         O13       1.0000    0.64320   0.25466   0.71044   Biso      1.000     O          -0.564659           
         O14       1.0000    0.43260   0.22123   0.18793   Biso      1.000     O          -0.229692           
         O15       1.0000    0.73340   0.88942   0.28148   Biso      1.000     O          -0.533799           
         O16       1.0000    0.09600   0.04218   0.64222   Biso      1.000     O          -0.6370939999999999           
         O17       1.0000    0.23340   0.71852   0.11058   Biso      1.000     O          -0.533758           
         O18       1.0000    0.90400   0.95782   0.35778   Biso      1.000     O          -0.637093           
         O19       1.0000    0.56820   0.53179   0.90739   Biso      1.000     O          -0.604229           
         O20       1.0000    0.66280   0.65035   0.21829   Biso      1.000     O          -0.612536           
         O21       1.0000    0.43180   0.46821   0.09261   Biso      1.000     O          -0.604263           
         O22       1.0000    0.16280   0.78171   0.34965   Biso      1.000     O          -0.61252  
         O23       1.0000    0.42040   0.43665   0.42153   Biso      1.000     O          -0.225935           
         O24       1.0000    0.93260   0.81207   0.77877   Biso      1.000     O          -0.229652           
         O25       1.0000    0.33720   0.34965   0.78171   Biso      1.000     O          -0.6125390000000001           
         O26       1.0000    0.40940   0.56842   0.19988   Biso      1.000     O          -0.545774           
         O27       1.0000    0.76660   0.28148   0.88942   Biso      1.000     O          -0.533734           
         O28       1.0000    0.90940   0.80012   0.43158   Biso      1.000     O          -0.545756           
         O29       1.0000    0.14320   0.28956   0.74534   Biso      1.000     O          -0.564643           
         O30       1.0000    0.93180   0.90739   0.53179   Biso      1.000     O          -0.604226           
         O31       1.0000    0.92040   0.57847   0.56335   Biso      1.000     O          -0.225935           
         O32       1.0000    0.83720   0.21829   0.65035   Biso      1.000     O          -0.612502 