
##########################################################################
#               Crystallographic Information Format file
#               Produced by PyCifRW module
#
#  This is a CIF file.  CIF has been adopted by the International
#  Union of Crystallography as the standard for data archiving and
#  transmission.
#
#  For information on this file format, follow the CIF links at
#  http://www.iucr.org
##########################################################################

data_image0

_cell_length_a                          13.4154
_cell_length_b                          13.4154
_cell_length_c                          13.4154
_cell_angle_alpha                       90
_cell_angle_beta                        90
_cell_angle_gamma                       90
_symmetry_space_group_name_H-M          'P 1'
_symmetry_int_tables_number             1
loop_
  _symmetry_equiv_pos_as_xyz
         'x, y, z' 
loop_
  _atom_site_label
  _atom_site_occupancy
  _atom_site_fract_x
  _atom_site_fract_y
  _atom_site_fract_z
  _atom_site_thermal_displace_type
  _atom_site_B_iso_or_equiv
  _atom_site_type_symbol
  _atom_site_charge
         Er1       1.0000    0.96836   0.03164   0.53164   Biso      1.000     Er          2.223599  
         Er2       1.0000    0.81487   0.81487   0.81487   Biso      1.000     Er          2.271331  
         Er3       1.0000    0.96836   0.96836   0.96836   Biso      1.000     Er          2.223595  
         Er4       1.0000    0.81487   0.18513   0.68513   Biso      1.000     Er          2.271337  
         Er5       1.0000    0.53164   0.03164   0.46836   Biso      1.000     Er          2.2235970000000003  
         Er6       1.0000    0.31487   0.68513   0.18513   Biso      1.000     Er          2.2713349999999997  
         Er7       1.0000    0.46836   0.53164   0.03164   Biso      1.000     Er          2.223601  
         Er8       1.0000    0.68513   0.81487   0.18513   Biso      1.000     Er          2.271338  
         Er9       1.0000    0.53164   0.96836   0.03164   Biso      1.000     Er          2.22359   
         Er10      1.0000    0.18513   0.31487   0.68513   Biso      1.000     Er          2.27133   
         Er11      1.0000    0.46836   0.46836   0.46836   Biso      1.000     Er          2.2235970000000003  
         Er12      1.0000    0.03164   0.46836   0.53164   Biso      1.000     Er          2.223592  
         Er13      1.0000    0.03164   0.53164   0.96836   Biso      1.000     Er          2.223594  
         Er14      1.0000    0.18513   0.68513   0.81487   Biso      1.000     Er          2.2713330000000003  
         Er15      1.0000    0.68513   0.18513   0.31487   Biso      1.000     Er          2.271331  
         Er16      1.0000    0.31487   0.31487   0.31487   Biso      1.000     Er          2.271325  
         O1        1.0000    0.47160   0.38660   0.30810   Biso      1.000     O          -1.042824           
         O2        1.0000    0.50650   0.40300   0.12570   Biso      1.000     O          -0.9359729999999999           
         O3        1.0000    0.63000   0.31830   0.23740   Biso      1.000     O          -0.8946649999999999           
         O4        1.0000    0.97160   0.88660   0.80810   Biso      1.000     O          -1.042825           
         O5        1.0000    0.00650   0.90300   0.62570   Biso      1.000     O          -0.935974           
         O6        1.0000    0.13000   0.81830   0.73740   Biso      1.000     O          -0.894666           
         O7        1.0000    0.02840   0.61340   0.80810   Biso      1.000     O          -1.042825           
         O8        1.0000    0.61340   0.19190   0.47160   Biso      1.000     O          -1.042824           
         O9        1.0000    0.87000   0.31830   0.76260   Biso      1.000     O          -0.894667           
         O10       1.0000    0.99350   0.40300   0.87430   Biso      1.000     O          -0.9359729999999999           
         O11       1.0000    0.02840   0.38660   0.69190   Biso      1.000     O          -1.042825           
         O12       1.0000    0.37000   0.81830   0.26260   Biso      1.000     O          -0.894667           
         O13       1.0000    0.49350   0.90300   0.37430   Biso      1.000     O          -0.935974           
         O14       1.0000    0.52840   0.88660   0.19190   Biso      1.000     O          -1.042826           
         O15       1.0000    0.68170   0.26260   0.63000   Biso      1.000     O          -0.894667           
         O16       1.0000    0.59700   0.37430   0.50650   Biso      1.000     O          -0.935974           
         O17       1.0000    0.89320   0.50000   0.75000   Biso      1.000     O          -0.660479           
         O18       1.0000    0.18170   0.76260   0.13000   Biso      1.000     O          -0.894666           
         O19       1.0000    0.99350   0.59700   0.62570   Biso      1.000     O          -0.9359729999999999           
         O20       1.0000    0.87000   0.68170   0.73740   Biso      1.000     O          -0.894666           
         O21       1.0000    0.50650   0.59700   0.37430   Biso      1.000     O          -0.9359729999999999           
         O22       1.0000    0.49350   0.09700   0.12570   Biso      1.000     O          -0.935974           
         O23       1.0000    0.60680   0.50000   0.25000   Biso      1.000     O          -0.660479           
         O24       1.0000    0.39320   0.00000   0.25000   Biso      1.000     O          -0.660479           
         O25       1.0000    0.00000   0.75000   0.10680   Biso      1.000     O          -0.660479           
         O26       1.0000    0.50000   0.75000   0.89320   Biso      1.000     O          -0.660478           
         O27       1.0000    0.50000   0.25000   0.60680   Biso      1.000     O          -0.660479           
         O28       1.0000    0.00000   0.25000   0.39320   Biso      1.000     O          -0.660479           
         O29       1.0000    0.75000   0.10680   0.00000   Biso      1.000     O          -0.660479           
         O30       1.0000    0.75000   0.89320   0.50000   Biso      1.000     O          -0.660479           
         O31       1.0000    0.25000   0.60680   0.50000   Biso      1.000     O          -0.660479           
         O32       1.0000    0.25000   0.39320   0.00000   Biso      1.000     O          -0.660478           
         O33       1.0000    0.63000   0.68170   0.26260   Biso      1.000     O          -0.894666           
         O34       1.0000    0.09700   0.87430   0.00650   Biso      1.000     O          -0.9359719999999999           
         O35       1.0000    0.47160   0.61340   0.19190   Biso      1.000     O          -1.042825           
         O36       1.0000    0.13000   0.18170   0.76260   Biso      1.000     O          -0.894666           
         O37       1.0000    0.00650   0.09700   0.87430   Biso      1.000     O          -0.935974           
         O38       1.0000    0.97160   0.11340   0.69190   Biso      1.000     O          -1.042826           
         O39       1.0000    0.37000   0.18170   0.23740   Biso      1.000     O          -0.894666           
         O40       1.0000    0.52840   0.11340   0.30810   Biso      1.000     O          -1.042826           
         O41       1.0000    0.11340   0.69190   0.97160   Biso      1.000     O          -1.042824           
         O42       1.0000    0.10680   0.00000   0.75000   Biso      1.000     O          -0.660478           
         O43       1.0000    0.18170   0.23740   0.37000   Biso      1.000     O          -0.8946649999999999           
         O44       1.0000    0.88660   0.19190   0.52840   Biso      1.000     O          -1.042826           
         O45       1.0000    0.37430   0.50650   0.59700   Biso      1.000     O          -0.935974           
         O46       1.0000    0.19190   0.47160   0.61340   Biso      1.000     O          -1.042825           
         O47       1.0000    0.76260   0.13000   0.18170   Biso      1.000     O          -0.8946649999999999           
         O48       1.0000    0.87430   0.00650   0.09700   Biso      1.000     O          -0.935974           
         O49       1.0000    0.69190   0.97160   0.11340   Biso      1.000     O          -1.042825           
         O50       1.0000    0.23740   0.37000   0.18170   Biso      1.000     O          -0.8946649999999999           
         O51       1.0000    0.12570   0.49350   0.09700   Biso      1.000     O          -0.935974           
         O52       1.0000    0.30810   0.52840   0.11340   Biso      1.000     O          -1.042826           
         O53       1.0000    0.73740   0.87000   0.68170   Biso      1.000     O          -0.894667           
         O54       1.0000    0.62570   0.99350   0.59700   Biso      1.000     O          -0.935974           
         O55       1.0000    0.90300   0.37430   0.49350   Biso      1.000     O          -0.935975           
         O56       1.0000    0.80810   0.02840   0.61340   Biso      1.000     O          -1.042826           
         O57       1.0000    0.62570   0.00650   0.90300   Biso      1.000     O          -0.9359729999999999           
         O58       1.0000    0.80810   0.97160   0.88660   Biso      1.000     O          -1.042825           
         O59       1.0000    0.23740   0.63000   0.31830   Biso      1.000     O          -0.894667           
         O60       1.0000    0.12570   0.50650   0.40300   Biso      1.000     O          -0.9359729999999999           
         O61       1.0000    0.30810   0.47160   0.38660   Biso      1.000     O          -1.042824           
         O62       1.0000    0.76260   0.87000   0.31830   Biso      1.000     O          -0.894667           
         O63       1.0000    0.87430   0.99350   0.40300   Biso      1.000     O          -0.935974           
         O64       1.0000    0.69190   0.02840   0.38660   Biso      1.000     O          -1.042825           
         O65       1.0000    0.26260   0.37000   0.81830   Biso      1.000     O          -0.894666           
         O66       1.0000    0.37430   0.49350   0.90300   Biso      1.000     O          -0.935975           
         O67       1.0000    0.19190   0.52840   0.88660   Biso      1.000     O          -1.042825           
         O68       1.0000    0.73740   0.13000   0.81830   Biso      1.000     O          -0.894667           
         O69       1.0000    0.81830   0.26260   0.37000   Biso      1.000     O          -0.894667           
         O70       1.0000    0.26260   0.63000   0.68170   Biso      1.000     O          -0.894666           
         O71       1.0000    0.38660   0.30810   0.47160   Biso      1.000     O          -1.042826           
         O72       1.0000    0.88660   0.80810   0.97160   Biso      1.000     O          -1.042823           
         O73       1.0000    0.61340   0.80810   0.02840   Biso      1.000     O          -1.042826           
         O74       1.0000    0.31830   0.23740   0.63000   Biso      1.000     O          -0.894666           
         O75       1.0000    0.40300   0.12570   0.50650   Biso      1.000     O          -0.935974           
         O76       1.0000    0.59700   0.62570   0.99350   Biso      1.000     O          -0.935975           
         O77       1.0000    0.90300   0.62570   0.00650   Biso      1.000     O          -0.9359729999999999           
         O78       1.0000    0.31830   0.76260   0.87000   Biso      1.000     O          -0.894667           
         O79       1.0000    0.81830   0.73740   0.13000   Biso      1.000     O          -0.894666           
         O80       1.0000    0.40300   0.87430   0.99350   Biso      1.000     O          -0.9359729999999999           
         O81       1.0000    0.11340   0.30810   0.52840   Biso      1.000     O          -1.042826           
         O82       1.0000    0.09700   0.12570   0.49350   Biso      1.000     O          -0.935975           
         O83       1.0000    0.38660   0.69190   0.02840   Biso      1.000     O          -1.042826           
         O84       1.0000    0.68170   0.73740   0.87000   Biso      1.000     O          -0.894667           
         P1        1.0000    0.10450   0.22860   0.44800   Biso      1.000     P          1.705393  
         P2        1.0000    0.44800   0.89550   0.27140   Biso      1.000     P          1.705396  
         P3        1.0000    0.77140   0.94800   0.39550   Biso      1.000     P          1.705396  
         P4        1.0000    0.22860   0.55200   0.39550   Biso      1.000     P          1.705395  
         P5        1.0000    0.60450   0.27140   0.55200   Biso      1.000     P          1.705396  
         P6        1.0000    0.60450   0.72860   0.94800   Biso      1.000     P          1.705396  
         P7        1.0000    0.72860   0.05200   0.89550   Biso      1.000     P          1.705396  
         P8        1.0000    0.94800   0.39550   0.77140   Biso      1.000     P          1.705396  
         P9        1.0000    0.39550   0.77140   0.94800   Biso      1.000     P          1.705396  
         P10       1.0000    0.55200   0.39550   0.22860   Biso      1.000     P          1.7053939999999999  
         P11       1.0000    0.44800   0.10450   0.22860   Biso      1.000     P          1.7053939999999999  
         P12       1.0000    0.89550   0.72860   0.05200   Biso      1.000     P          1.705395  
         P13       1.0000    0.22860   0.44800   0.10450   Biso      1.000     P          1.7053939999999999  
         P14       1.0000    0.05200   0.89550   0.72860   Biso      1.000     P          1.705395  
         P15       1.0000    0.77140   0.05200   0.10450   Biso      1.000     P          1.705395  
         P16       1.0000    0.39550   0.22860   0.55200   Biso      1.000     P          1.705395  
         P17       1.0000    0.27140   0.55200   0.60450   Biso      1.000     P          1.705396  
         P18       1.0000    0.94800   0.60450   0.72860   Biso      1.000     P          1.705393  
         P19       1.0000    0.55200   0.60450   0.27140   Biso      1.000     P          1.705395  
         P20       1.0000    0.10450   0.77140   0.05200   Biso      1.000     P          1.705396  
         P21       1.0000    0.89550   0.27140   0.44800   Biso      1.000     P          1.705395  
         P22       1.0000    0.05200   0.10450   0.77140   Biso      1.000     P          1.705395  
         P23       1.0000    0.72860   0.94800   0.60450   Biso      1.000     P          1.705396  
         P24       1.0000    0.27140   0.44800   0.89550   Biso      1.000     P          1.705396 