
##########################################################################
#               Crystallographic Information Format file
#               Produced by PyCifRW module
#
#  This is a CIF file.  CIF has been adopted by the International
#  Union of Crystallography as the standard for data archiving and
#  transmission.
#
#  For information on this file format, follow the CIF links at
#  http://www.iucr.org
##########################################################################

data_image0

_cell_length_a                          11.3273
_cell_length_b                          11.5744
_cell_length_c                          16.2434
_cell_angle_alpha                       105.505
_cell_angle_beta                        110.406
_cell_angle_gamma                       90
_symmetry_space_group_name_H-M          'P 1'
_symmetry_int_tables_number             1
loop_
  _symmetry_equiv_pos_as_xyz
         'x, y, z' 
loop_
  _atom_site_label
  _atom_site_occupancy
  _atom_site_fract_x
  _atom_site_fract_y
  _atom_site_fract_z
  _atom_site_thermal_displace_type
  _atom_site_B_iso_or_equiv
  _atom_site_type_symbol
  _atom_site_charge
         C1        1.0000    0.43087   0.49360   0.72734   Biso      1.000     C          0.111686  
         C2        1.0000    0.38668   0.36000   0.46496   Biso      1.000     C          -0.194644           
         C3        1.0000    0.96714   0.77780   0.56428   Biso      1.000     C          0.088833  
         C4        1.0000    0.23455   0.99140   0.79310   Biso      1.000     C          0.113241  
         C5        1.0000    0.24386   0.40460   0.09652   Biso      1.000     C          0.101831  
         C6        1.0000    0.43641   0.91710   0.64862   Biso      1.000     C          0.030395  
         C7        1.0000    0.50173   0.56150   0.49386   Biso      1.000     C          0.093742  
         C8        1.0000    0.60937   0.38520   0.80514   Biso      1.000     C          -0.192706           
         C9        1.0000    0.40499   0.57990   0.67858   Biso      1.000     C          -0.192843           
         C10       1.0000    0.61097   0.75610   0.52594   Biso      1.000     C          0.064302  
         C11       1.0000    0.80423   0.11480   0.19486   Biso      1.000     C          -0.192074           
         C12       1.0000    0.39063   0.61480   0.19486   Biso      1.000     C          -0.192706           
         C13       1.0000    0.78779   0.58290   0.35138   Biso      1.000     C          0.030271  
         C14       1.0000    0.61332   0.64000   0.53504   Biso      1.000     C          -0.194644           
         C15       1.0000    0.73181   0.39060   0.86602   Biso      1.000     C          0.083306  
         C16       1.0000    0.56359   0.08290   0.35138   Biso      1.000     C          0.030394  
         C17       1.0000    0.59714   0.27780   0.56428   Biso      1.000     C          0.088621  
         C18       1.0000    0.79138   0.90100   0.15456   Biso      1.000     C          -0.205459           
         C19       1.0000    0.38903   0.24390   0.47406   Biso      1.000     C          0.064301  
         C20       1.0000    0.72641   0.92010   0.32142   Biso      1.000     C          -0.191001           
         C21       1.0000    0.03286   0.22220   0.43572   Biso      1.000     C          0.088832  
         C22       1.0000    0.91497   0.25610   0.52594   Biso      1.000     C          0.064331  
         C23       1.0000    0.71477   0.42240   0.38374   Biso      1.000     C          0.088523  
         C24       1.0000    0.14734   0.09540   0.90348   Biso      1.000     C          0.10169   
         C25       1.0000    0.49827   0.43850   0.50614   Biso      1.000     C          0.093742  
         C26       1.0000    0.56913   0.50640   0.27266   Biso      1.000     C          0.111685  
         C27       1.0000    0.38098   0.91120   0.71096   Biso      1.000     C          -0.201344           
         C28       1.0000    0.44145   0.50860   0.20690   Biso      1.000     C          0.112714  
         C29       1.0000    0.27359   0.07990   0.67858   Biso      1.000     C          -0.191001           
         C30       1.0000    0.60396   0.39510   0.55832   Biso      1.000     C          -0.176863           
         C31       1.0000    0.66897   0.92240   0.38374   Biso      1.000     C          0.087831  
         C32       1.0000    0.39604   0.60490   0.44168   Biso      1.000     C          -0.176864           
         C33       1.0000    0.63682   0.59900   0.84544   Biso      1.000     C          -0.204423           
         C34       1.0000    0.04564   0.10490   0.44168   Biso      1.000     C          -0.17553  
         C35       1.0000    0.61902   0.08880   0.28904   Biso      1.000     C          -0.201344           
         C36       1.0000    0.13421   0.89060   0.86602   Biso      1.000     C          0.082068  
         C37       1.0000    0.32998   0.41120   0.71096   Biso      1.000     C          -0.202325           
         C38       1.0000    0.19577   0.88520   0.80514   Biso      1.000     C          -0.192064           
         C39       1.0000    0.20862   0.09900   0.84544   Biso      1.000     C          -0.20544  
         C40       1.0000    0.70353   0.00640   0.27266   Biso      1.000     C          0.111755  
         C41       1.0000    0.76545   0.00860   0.20690   Biso      1.000     C          0.113252  
         C42       1.0000    0.67002   0.58880   0.28904   Biso      1.000     C          -0.202321           
         C43       1.0000    0.55855   0.49140   0.79310   Biso      1.000     C          0.112717  
         C44       1.0000    0.86579   0.10940   0.13398   Biso      1.000     C          0.082074  
         C45       1.0000    0.36318   0.40100   0.15456   Biso      1.000     C          -0.204408           
         C46       1.0000    0.28523   0.57760   0.61626   Biso      1.000     C          0.088527  
         C47       1.0000    0.26819   0.60940   0.13398   Biso      1.000     C          0.083304  
         C48       1.0000    0.00787   0.93850   0.50614   Biso      1.000     C          0.09324   
         C49       1.0000    0.75614   0.59540   0.90348   Biso      1.000     C          0.101846  
         C50       1.0000    0.92172   0.14000   0.53504   Biso      1.000     C          -0.193207           
         C51       1.0000    0.95436   0.89510   0.55832   Biso      1.000     C          -0.17553  
         C52       1.0000    0.07828   0.86000   0.46496   Biso      1.000     C          -0.193208           
         C53       1.0000    0.21221   0.41710   0.64862   Biso      1.000     C          0.030276  
         C54       1.0000    0.33103   0.07760   0.61626   Biso      1.000     C          0.087832  
         C55       1.0000    0.99213   0.06150   0.49386   Biso      1.000     C          0.09324   
         C56       1.0000    0.29647   0.99360   0.72734   Biso      1.000     C          0.111757  
         C57       1.0000    0.85266   0.90460   0.09652   Biso      1.000     C          0.101704  
         C58       1.0000    0.59501   0.42010   0.32142   Biso      1.000     C          -0.192841           
         C59       1.0000    0.08503   0.74390   0.47406   Biso      1.000     C          0.064331  
         C60       1.0000    0.40286   0.72220   0.43572   Biso      1.000     C          0.08862   
         Cu1       1.0000    0.00000   0.00000   0.00000   Biso      1.000     Cu          0.569534  
         Cu2       1.0000    0.00000   0.50000   0.00000   Biso      1.000     Cu          0.569568  
         Cu3       1.0000    0.00000   0.50000   0.50000   Biso      1.000     Cu          0.635539  
         Cu4       1.0000    0.50000   0.00000   0.50000   Biso      1.000     Cu          0.634395  
         H1        1.0000    0.67140   0.25090   0.60040   Biso      1.000     H          0.093223  
         H2        1.0000    0.60660   0.67430   0.84040   Biso      1.000     H          0.095075  
         H3        1.0000    0.68730   0.86400   0.41660   Biso      1.000     H          0.087834  
         H4        1.0000    0.76620   0.82570   0.15960   Biso      1.000     H          0.095361  
         H5        1.0000    0.19320   0.33020   0.06200   Biso      1.000     H          0.095879  
         H6        1.0000    0.39340   0.32570   0.15960   Biso      1.000     H          0.095075  
         H7        1.0000    0.07100   0.24910   0.39960   Biso      1.000     H          0.093362  
         H8        1.0000    0.14430   0.36130   0.63980   Biso      1.000     H          0.056071  
         H9        1.0000    0.40030   0.85130   0.74240   Biso      1.000     H          0.117909  
         H10       1.0000    0.68140   0.44580   0.59020   Biso      1.000     H          0.128902  
         H11       1.0000    0.78130   0.86040   0.31140   Biso      1.000     H          0.107558  
         H12       1.0000    0.31270   0.13600   0.58340   Biso      1.000     H          0.087834  
         H13       1.0000    0.78870   0.19040   0.22820   Biso      1.000     H          0.113964  
         H14       1.0000    0.92900   0.75090   0.60040   Biso      1.000     H          0.093361  
         H15       1.0000    0.80680   0.66980   0.93800   Biso      1.000     H          0.095877  
         H16       1.0000    0.43950   0.69040   0.22820   Biso      1.000     H          0.11372   
         H17       1.0000    0.72930   0.36400   0.41660   Biso      1.000     H          0.087891  
         H18       1.0000    0.23540   0.68300   0.12640   Biso      1.000     H          0.062764  
         H19       1.0000    0.31860   0.55420   0.40980   Biso      1.000     H          0.128903  
         H20       1.0000    0.21130   0.80960   0.77180   Biso      1.000     H          0.113963  
         H21       1.0000    0.68760   0.80820   0.55580   Biso      1.000     H          0.091057  
         H22       1.0000    0.50450   0.13870   0.36020   Biso      1.000     H          0.056117  
         H23       1.0000    0.53010   0.36040   0.31140   Biso      1.000     H          0.108363  
         H24       1.0000    0.34210   0.35130   0.74240   Biso      1.000     H          0.118914  
         H25       1.0000    0.30990   0.38580   0.43100   Biso      1.000     H          0.132849  
         H26       1.0000    0.86880   0.83020   0.06200   Biso      1.000     H          0.096146  
         H27       1.0000    0.46990   0.63960   0.68860   Biso      1.000     H          0.108362  
         H28       1.0000    0.86820   0.30820   0.55580   Biso      1.000     H          0.09136   
         H29       1.0000    0.76460   0.31700   0.87360   Biso      1.000     H          0.062764  
         H30       1.0000    0.23380   0.17430   0.84040   Biso      1.000     H          0.095359  
         H31       1.0000    0.49550   0.86130   0.63980   Biso      1.000     H          0.056116  
         H32       1.0000    0.10900   0.81700   0.87360   Biso      1.000     H          0.063049  
         H33       1.0000    0.56050   0.30960   0.77180   Biso      1.000     H          0.113719  
         H34       1.0000    0.21870   0.13960   0.68860   Biso      1.000     H          0.107558  
         H35       1.0000    0.13120   0.16980   0.93800   Biso      1.000     H          0.096146  
         H36       1.0000    0.32860   0.74910   0.39960   Biso      1.000     H          0.093223  
         H37       1.0000    0.87890   0.11420   0.56900   Biso      1.000     H          0.131871  
         H38       1.0000    0.31240   0.19180   0.44420   Biso      1.000     H          0.091057  
         H39       1.0000    0.65790   0.64870   0.25760   Biso      1.000     H          0.118914  
         H40       1.0000    0.90880   0.94580   0.59020   Biso      1.000     H          0.128011  
         H41       1.0000    0.69010   0.61420   0.56900   Biso      1.000     H          0.132848  
         H42       1.0000    0.27070   0.63600   0.58340   Biso      1.000     H          0.08789   
         H43       1.0000    0.09120   0.05420   0.40980   Biso      1.000     H          0.128011  
         H44       1.0000    0.12110   0.88580   0.43100   Biso      1.000     H          0.131871  
         H45       1.0000    0.59970   0.14870   0.25760   Biso      1.000     H          0.117909  
         H46       1.0000    0.13180   0.69180   0.44420   Biso      1.000     H          0.091361  
         H47       1.0000    0.89100   0.18300   0.12640   Biso      1.000     H          0.063048  
         H48       1.0000    0.85570   0.63870   0.36020   Biso      1.000     H          0.056073  
         N1        1.0000    0.49211   0.20050   0.52202   Biso      1.000     N          -0.235605           
         N2        1.0000    0.19345   0.50670   0.08510   Biso      1.000     N          -0.204403           
         N3        1.0000    0.10835   0.99330   0.91490   Biso      1.000     N          -0.204199           
         N4        1.0000    0.58848   0.00220   0.40076   Biso      1.000     N          -0.230933           
         N5        1.0000    0.97009   0.29950   0.47798   Biso      1.000     N          -0.236995           
         N6        1.0000    0.41152   0.99780   0.59924   Biso      1.000     N          -0.230935           
         N7        1.0000    0.50789   0.79950   0.47798   Biso      1.000     N          -0.235605           
         N8        1.0000    0.89165   0.00670   0.08510   Biso      1.000     N          -0.204198           
         N9        1.0000    0.80655   0.49330   0.91490   Biso      1.000     N          -0.204408           
         N10       1.0000    0.18772   0.49780   0.59924   Biso      1.000     N          -0.230165           
         N11       1.0000    0.81228   0.50220   0.40076   Biso      1.000     N          -0.230162           
         N12       1.0000    0.02991   0.70050   0.52202   Biso      1.000     N          -0.236994           
         O1        1.0000    0.10220   0.57210   0.26700   Biso      1.000     O          -0.873072           
         O2        1.0000    0.97881   0.63700   0.10182   Biso      1.000     O          -0.805083           
         O3        1.0000    0.67360   0.02690   0.59940   Biso      1.000     O          -0.771633           
         O4        1.0000    0.07420   0.47310   0.40060   Biso      1.000     O          -0.771832           
         O5        1.0000    0.83520   0.92790   0.73300   Biso      1.000     O          -0.872622           
         O6        1.0000    0.15059   0.32380   0.26558   Biso      1.000     O          -0.876389           
         O7        1.0000    0.89780   0.42790   0.73300   Biso      1.000     O          -0.873071           
         O8        1.0000    0.87699   0.86300   0.89818   Biso      1.000     O          -0.804784           
         O9        1.0000    0.02119   0.36300   0.89818   Biso      1.000     O          -0.805081           
         O10       1.0000    0.16480   0.07210   0.26700   Biso      1.000     O          -0.872623           
         O11       1.0000    0.11499   0.82380   0.26558   Biso      1.000     O          -0.876167           
         O12       1.0000    0.32640   0.97310   0.40060   Biso      1.000     O          -0.771632           
         O13       1.0000    0.92580   0.52690   0.59940   Biso      1.000     O          -0.771831           
         O14       1.0000    0.88501   0.17620   0.73442   Biso      1.000     O          -0.876157           
         O15       1.0000    0.84941   0.67620   0.73442   Biso      1.000     O          -0.876377           
         O16       1.0000    0.12301   0.13700   0.10182   Biso      1.000     O          -0.804782           
         V1        1.0000    0.01819   0.68172   0.21518   Biso      1.000     V          1.298412  
         V2        1.0000    0.23579   0.93969   0.28962   Biso      1.000     V          1.299749  
         V3        1.0000    0.98181   0.31828   0.78482   Biso      1.000     V          1.298404  
         V4        1.0000    0.19699   0.18172   0.21518   Biso      1.000     V          1.29783   
         V5        1.0000    0.80301   0.81828   0.78482   Biso      1.000     V          1.297825  
         V6        1.0000    0.94617   0.56031   0.71038   Biso      1.000     V          1.300109  
         V7        1.0000    0.05383   0.43969   0.28962   Biso      1.000     V          1.300107  
         V8        1.0000    0.76421   0.06031   0.71038   Biso      1.000     V          1.299749 