
##########################################################################
#               Crystallographic Information Format file
#               Produced by PyCifRW module
#
#  This is a CIF file.  CIF has been adopted by the International
#  Union of Crystallography as the standard for data archiving and
#  transmission.
#
#  For information on this file format, follow the CIF links at
#  http://www.iucr.org
##########################################################################

data_image0

_cell_length_a                          14.168
_cell_length_b                          15.091
_cell_length_c                          22.752
_cell_angle_alpha                       85.333
_cell_angle_beta                        75.13
_cell_angle_gamma                       69.426
_symmetry_space_group_name_H-M          'P 1'
_symmetry_int_tables_number             1
loop_
  _symmetry_equiv_pos_as_xyz
         'x, y, z' 
loop_
  _atom_site_label
  _atom_site_occupancy
  _atom_site_fract_x
  _atom_site_fract_y
  _atom_site_fract_z
  _atom_site_thermal_displace_type
  _atom_site_B_iso_or_equiv
  _atom_site_type_symbol
  _atom_site_charge
         C1        1.0000    0.59750   0.71040   0.00610   Biso      1.000     C          -0.08824  
         C2        1.0000    0.11640   0.30300   0.47560   Biso      1.000     C          -0.190165           
         C3        1.0000    0.54400   0.85450   0.86970   Biso      1.000     C          -0.202874           
         C4        1.0000    0.06550   0.23450   0.66540   Biso      1.000     C          0.648082  
         C5        1.0000    0.70330   0.96690   0.87510   Biso      1.000     C          -0.059345           
         C6        1.0000    0.30970   0.36430   0.18300   Biso      1.000     C          -0.077155           
         C7        1.0000    0.83290   0.50620   0.33730   Biso      1.000     C          -0.012053           
         C8        1.0000    0.92800   0.05020   0.83210   Biso      1.000     C          0.611843  
         C9        1.0000    0.63860   0.04990   0.10570   Biso      1.000     C          -0.106397           
         C10       1.0000    0.13700   0.48910   0.14790   Biso      1.000     C          -0.101682           
         C11       1.0000    0.41440   0.26150   0.82870   Biso      1.000     C          0.601148  
         C12       1.0000    0.13240   0.01470   0.15320   Biso      1.000     C          -0.017093           
         C13       1.0000    0.33110   0.53630   0.34230   Biso      1.000     C          -0.030009           
         C14       1.0000    0.65320   0.07920   0.71290   Biso      1.000     C          0.683878  
         C15       1.0000    0.63280   0.02510   0.16540   Biso      1.000     C          -0.004519           
         C16       1.0000    0.66890   0.46370   0.65770   Biso      1.000     C          -0.030009           
         C17       1.0000    0.86300   0.51090   0.85210   Biso      1.000     C          -0.101682           
         C18       1.0000    0.73280   0.57070   0.32160   Biso      1.000     C          0.60697   
         C19       1.0000    0.26720   0.42930   0.67840   Biso      1.000     C          0.60697   
         C20       1.0000    0.18080   0.39550   0.12690   Biso      1.000     C          -0.088656           
         C21       1.0000    0.65840   0.94810   0.65240   Biso      1.000     C          -0.09277  
         C22       1.0000    0.36720   0.97490   0.83460   Biso      1.000     C          -0.004524           
         C23       1.0000    0.13790   0.31410   0.57620   Biso      1.000     C          -0.102187           
         C24       1.0000    0.67330   0.62050   0.65070   Biso      1.000     C          -0.066775           
         C25       1.0000    0.39740   0.24770   0.89600   Biso      1.000     C          -0.003986           
         C26       1.0000    0.86210   0.68590   0.42380   Biso      1.000     C          -0.102187           
         C27       1.0000    0.01480   0.39390   0.36970   Biso      1.000     C          -0.192561           
         C28       1.0000    0.93450   0.76550   0.33460   Biso      1.000     C          0.648082  
         C29       1.0000    0.73050   0.54510   0.79740   Biso      1.000     C          -0.098174           
         C30       1.0000    0.01700   0.42900   0.31040   Biso      1.000     C          -0.093124           
         C31       1.0000    0.34680   0.92080   0.28710   Biso      1.000     C          0.683879  
         C32       1.0000    0.78320   0.91520   0.70960   Biso      1.000     C          -0.100661           
         C33       1.0000    0.66870   0.82440   0.01480   Biso      1.000     C          -0.088943           
         C34       1.0000    0.32670   0.37950   0.34930   Biso      1.000     C          -0.066775           
         C35       1.0000    0.03620   0.22770   0.56280   Biso      1.000     C          -0.102159           
         C36       1.0000    0.16710   0.49380   0.66270   Biso      1.000     C          -0.012053           
         C37       1.0000    0.45320   0.11670   0.19090   Biso      1.000     C          -0.086552           
         C38       1.0000    0.21680   0.08480   0.29040   Biso      1.000     C          -0.100659           
         C39       1.0000    0.42290   0.30110   0.93150   Biso      1.000     C          -0.106988           
         C40       1.0000    0.92140   0.41620   0.41150   Biso      1.000     C          -0.085976           
         C41       1.0000    0.91890   0.73930   0.40030   Biso      1.000     C          -0.013924           
         C42       1.0000    0.94230   0.75090   0.49970   Biso      1.000     C          -0.063969           
         C43       1.0000    0.75910   0.02540   0.86240   Biso      1.000     C          -0.114712           
         C44       1.0000    0.26750   0.33170   0.14279   Biso      1.000     C          -0.189897           
         C45       1.0000    0.14190   0.62240   0.20740   Biso      1.000     C          0.689106  
         C46       1.0000    0.84560   0.66210   0.48510   Biso      1.000     C          -0.083381           
         C47       1.0000    0.07860   0.58380   0.58850   Biso      1.000     C          -0.085987           
         C48       1.0000    0.45600   0.14550   0.13030   Biso      1.000     C          -0.202874           
         C49       1.0000    0.38770   0.60220   0.32280   Biso      1.000     C          0.639939  
         C50       1.0000    0.22190   0.57090   0.36710   Biso      1.000     C          -0.124189           
         C51       1.0000    0.44930   0.89050   0.91230   Biso      1.000     C          -0.090365           
         C52       1.0000    0.34940   0.18670   0.92330   Biso      1.000     C          -0.10253  
         C53       1.0000    0.58560   0.73850   0.17130   Biso      1.000     C          0.601147  
         C54       1.0000    0.26950   0.45490   0.20260   Biso      1.000     C          -0.098154           
         C55       1.0000    0.65060   0.81330   0.07670   Biso      1.000     C          -0.102545           
         C56       1.0000    0.54680   0.88330   0.80910   Biso      1.000     C          -0.086552           
         C57       1.0000    0.60260   0.75230   0.10400   Biso      1.000     C          -0.003973           
         C58       1.0000    0.15440   0.33790   0.51490   Biso      1.000     C          -0.083376           
         C59       1.0000    0.82990   0.49450   0.61820   Biso      1.000     C          -0.073111           
         C60       1.0000    0.26870   0.04840   0.81860   Biso      1.000     C          0.606798  
         C61       1.0000    0.33130   0.17560   0.98520   Biso      1.000     C          -0.088946           
         C62       1.0000    0.55070   0.10950   0.08770   Biso      1.000     C          -0.090363           
         C63       1.0000    0.17030   0.53030   0.60540   Biso      1.000     C          -0.095205           
         C64       1.0000    0.14020   0.17130   0.14610   Biso      1.000     C          -0.074762           
         C65       1.0000    0.29570   0.14610   0.36980   Biso      1.000     C          -0.084224           
         C66       1.0000    0.07200   0.94980   0.16790   Biso      1.000     C          0.611843  
         C67       1.0000    0.98520   0.60610   0.63030   Biso      1.000     C          -0.192549           
         C68       1.0000    0.36140   0.95010   0.89430   Biso      1.000     C          -0.106392           
         C69       1.0000    0.82970   0.46970   0.39460   Biso      1.000     C          -0.095207           
         C70       1.0000    0.30190   0.02310   0.30810   Biso      1.000     C          -0.025464           
         C71       1.0000    0.17010   0.50550   0.38180   Biso      1.000     C          -0.073111           
         C72       1.0000    0.85980   0.82870   0.85390   Biso      1.000     C          -0.074762           
         C73       1.0000    0.61230   0.39780   0.67720   Biso      1.000     C          0.639939  
         C74       1.0000    0.69810   0.97690   0.69190   Biso      1.000     C          -0.025449           
         C75       1.0000    0.77810   0.42910   0.63290   Biso      1.000     C          -0.124189           
         C76       1.0000    0.98300   0.57100   0.68960   Biso      1.000     C          -0.093125           
         C77       1.0000    0.46100   0.94200   0.79210   Biso      1.000     C          -0.094228           
         C78       1.0000    0.96380   0.77230   0.43720   Biso      1.000     C          -0.102157           
         C79       1.0000    0.61730   0.56230   0.66560   Biso      1.000     C          -0.087362           
         C80       1.0000    0.18200   0.52010   0.18640   Biso      1.000     C          -0.038433           
         C81       1.0000    0.53900   0.05800   0.20790   Biso      1.000     C          -0.094229           
         C82       1.0000    0.05770   0.24910   0.50030   Biso      1.000     C          -0.063954           
         C83       1.0000    0.73250   0.66830   0.85721   Biso      1.000     C          -0.189902           
         C84       1.0000    0.77580   0.59520   0.62770   Biso      1.000     C          -0.185951           
         C85       1.0000    0.20870   0.20930   0.35297   Biso      1.000     C          -0.186742           
         C86       1.0000    0.86760   0.98530   0.84680   Biso      1.000     C          -0.017093           
         C87       1.0000    0.79130   0.79070   0.64703   Biso      1.000     C          -0.186743           
         C88       1.0000    0.64110   0.77400   0.97900   Biso      1.000     C          -0.186466           
         C89       1.0000    0.88360   0.69700   0.52440   Biso      1.000     C          -0.190145           
         C90       1.0000    0.24850   0.13590   0.12930   Biso      1.000     C          -0.186099           
         C91       1.0000    0.38270   0.43770   0.33440   Biso      1.000     C          -0.087362           
         C92       1.0000    0.91910   0.88960   0.84230   Biso      1.000     C          -0.084144           
         C93       1.0000    0.08110   0.26070   0.59970   Biso      1.000     C          -0.013924           
         C94       1.0000    0.40250   0.28960   0.99390   Biso      1.000     C          -0.08824  
         C95       1.0000    0.81800   0.47990   0.81360   Biso      1.000     C          -0.03843  
         C96       1.0000    0.35890   0.22600   0.02100   Biso      1.000     C          -0.186465           
         C97       1.0000    0.73130   0.95160   0.18140   Biso      1.000     C          0.606798  
         C98       1.0000    0.81920   0.60450   0.87310   Biso      1.000     C          -0.088653           
         C99       1.0000    0.75150   0.86410   0.87070   Biso      1.000     C          -0.186099           
         C100      1.0000    0.57710   0.69890   0.06850   Biso      1.000     C          -0.106989           
         C101      1.0000    0.92800   0.48340   0.29440   Biso      1.000     C          -0.103197           
         C102      1.0000    0.69030   0.63570   0.81700   Biso      1.000     C          -0.077135           
         C103      1.0000    0.85810   0.37760   0.79260   Biso      1.000     C          0.689106  
         C104      1.0000    0.22420   0.40480   0.37230   Biso      1.000     C          -0.185952           
         C105      1.0000    0.29670   0.03310   0.12490   Biso      1.000     C          -0.059345           
         C106      1.0000    0.08090   0.11040   0.15770   Biso      1.000     C          -0.084144           
         C107      1.0000    0.24090   0.97460   0.13760   Biso      1.000     C          -0.114712           
         C108      1.0000    0.70430   0.85390   0.63020   Biso      1.000     C          -0.08422  
         C109      1.0000    0.07200   0.51660   0.70560   Biso      1.000     C          -0.103196           
         C110      1.0000    0.17420   0.17610   0.31100   Biso      1.000     C          -0.06836  
         C111      1.0000    0.34160   0.05190   0.34760   Biso      1.000     C          -0.092753           
         C112      1.0000    0.82580   0.82390   0.68900   Biso      1.000     C          -0.06836  
         H1        1.0000    0.30100   0.47490   0.22750   Biso      1.000     H          0.110808  
         H2        1.0000    0.72630   0.09070   0.86410   Biso      1.000     H          0.115191  
         H3        1.0000    0.39070   0.13860   0.22020   Biso      1.000     H          0.095112  
         H4        1.0000    0.99330   0.19250   0.57880   Biso      1.000     H          0.114509  
         H5        1.0000    0.80810   0.62190   0.49970   Biso      1.000     H          0.098585  
         H6        1.0000    0.60130   0.98980   0.63980   Biso      1.000     H          0.117416  
         H7        1.0000    0.15040   0.37550   0.10120   Biso      1.000     H          0.104842  
         H8        1.0000    0.00870   0.13490   0.16800   Biso      1.000     H          0.132327  
         H9        1.0000    0.76590   0.48050   0.42250   Biso      1.000     H          0.120949  
         H10       1.0000    0.70070   0.86740   0.99670   Biso      1.000     H          0.094845  
         H11       1.0000    0.91980   0.58530   0.71840   Biso      1.000     H          0.095897  
         H12       1.0000    0.06920   0.49460   0.74520   Biso      1.000     H          0.1151    
         H13       1.0000    0.67130   0.84780   0.09990   Biso      1.000     H          0.111147  
         H14       1.0000    0.08020   0.41470   0.28160   Biso      1.000     H          0.095897  
         H15       1.0000    0.00670   0.80750   0.42120   Biso      1.000     H          0.114509  
         H16       1.0000    0.60930   0.86140   0.77980   Biso      1.000     H          0.095112  
         H17       1.0000    0.29930   0.13260   0.00330   Biso      1.000     H          0.094845  
         H18       1.0000    0.39870   0.01020   0.36020   Biso      1.000     H          0.117415  
         H19       1.0000    0.36330   0.31510   0.34280   Biso      1.000     H          0.094646  
         H20       1.0000    0.11970   0.21760   0.29600   Biso      1.000     H          0.099452  
         H21       1.0000    0.54560   0.58690   0.68090   Biso      1.000     H          0.128776  
         H22       1.0000    0.45390   0.34490   0.91360   Biso      1.000     H          0.116856  
         H23       1.0000    0.36600   0.32240   0.19630   Biso      1.000     H          0.103713  
         H24       1.0000    0.27370   0.90930   0.13590   Biso      1.000     H          0.115191  
         H25       1.0000    0.63400   0.67760   0.80370   Biso      1.000     H          0.103712  
         H26       1.0000    0.92140   0.46960   0.86350   Biso      1.000     H          0.118453  
         H27       1.0000    0.63120   0.99310   0.88700   Biso      1.000     H          0.109968  
         H28       1.0000    0.18580   0.63540   0.37340   Biso      1.000     H          0.104696  
         H29       1.0000    0.41930   0.32660   0.01760   Biso      1.000     H          0.102257  
         H30       1.0000    0.91870   0.39570   0.45130   Biso      1.000     H          0.101597  
         H31       1.0000    0.08130   0.60430   0.54870   Biso      1.000     H          0.101598  
         H32       1.0000    0.93080   0.50540   0.25480   Biso      1.000     H          0.1151    
         H33       1.0000    0.90140   0.47260   0.60180   Biso      1.000     H          0.102771  
         H34       1.0000    0.88030   0.78240   0.70400   Biso      1.000     H          0.099452  
         H35       1.0000    0.53460   0.03990   0.24830   Biso      1.000     H          0.116717  
         H36       1.0000    0.96980   0.77500   0.52510   Biso      1.000     H          0.112778  
         H37       1.0000    0.54610   0.65510   0.08640   Biso      1.000     H          0.116856  
         H38       1.0000    0.67550   0.83380   0.60370   Biso      1.000     H          0.102888  
         H39       1.0000    0.84960   0.62450   0.89880   Biso      1.000     H          0.104842  
         H40       1.0000    0.89390   0.76360   0.85010   Biso      1.000     H          0.108126  
         H41       1.0000    0.69900   0.52510   0.77250   Biso      1.000     H          0.110809  
         H42       1.0000    0.83250   0.66360   0.39880   Biso      1.000     H          0.11048   
         H43       1.0000    0.46540   0.96010   0.75170   Biso      1.000     H          0.116717  
         H44       1.0000    0.29840   0.97310   0.92310   Biso      1.000     H          0.121203  
         H45       1.0000    0.55530   0.12540   0.04700   Biso      1.000     H          0.100733  
         H46       1.0000    0.70160   0.02690   0.07690   Biso      1.000     H          0.121203  
         H47       1.0000    0.32870   0.15220   0.90010   Biso      1.000     H          0.111146  
         H48       1.0000    0.07860   0.53040   0.13650   Biso      1.000     H          0.118453  
         H49       1.0000    0.03020   0.22500   0.47490   Biso      1.000     H          0.112777  
         H50       1.0000    0.19190   0.37810   0.50030   Biso      1.000     H          0.098585  
         H51       1.0000    0.58070   0.67340   0.98240   Biso      1.000     H          0.102257  
         H52       1.0000    0.16750   0.33640   0.60120   Biso      1.000     H          0.11048   
         H53       1.0000    0.10610   0.23640   0.14990   Biso      1.000     H          0.108126  
         H54       1.0000    0.23410   0.51950   0.57750   Biso      1.000     H          0.120949  
         H55       1.0000    0.81200   0.93590   0.73580   Biso      1.000     H          0.101932  
         H56       1.0000    0.18800   0.06410   0.26420   Biso      1.000     H          0.101932  
         H57       1.0000    0.99130   0.86510   0.83200   Biso      1.000     H          0.132327  
         H58       1.0000    0.63670   0.68490   0.65720   Biso      1.000     H          0.094646  
         H59       1.0000    0.32450   0.16620   0.39630   Biso      1.000     H          0.102888  
         H60       1.0000    0.81420   0.36460   0.62660   Biso      1.000     H          0.104696  
         H61       1.0000    0.44470   0.87460   0.95300   Biso      1.000     H          0.100733  
         H62       1.0000    0.45440   0.41310   0.31910   Biso      1.000     H          0.128775  
         H63       1.0000    0.36880   0.00690   0.11300   Biso      1.000     H          0.109968  
         H64       1.0000    0.09860   0.52740   0.39820   Biso      1.000     H          0.102771  
         N1        1.0000    0.91530   0.05880   0.63870   Biso      1.000     N          0.648624  
         N2        1.0000    0.08470   0.94120   0.36130   Biso      1.000     N          0.648624  
         O1        1.0000    0.47180   0.30810   0.80252   Biso      1.000     O          -0.668905           
         O2        1.0000    0.93420   0.04340   0.68735   Biso      1.000     O          -0.412694           
         O3        1.0000    0.34480   0.39950   0.63491   Biso      1.000     O          -0.687994           
         O4        1.0000    0.05310   0.67140   0.19911   Biso      1.000     O          -0.729857           
         O5        1.0000    0.26730   0.40020   0.73041   Biso      1.000     O          -0.624161           
         O6        1.0000    0.95530   0.99720   0.58660   Biso      1.000     O          -0.419814           
         O7        1.0000    0.89460   0.13220   0.80822   Biso      1.000     O          -0.785851           
         O8        1.0000    0.10540   0.86780   0.19178   Biso      1.000     O          -0.785851           
         O9        1.0000    0.30000   0.88990   0.25894   Biso      1.000     O          -0.704151           
         O10       1.0000    0.01740   0.02380   0.84520   Biso      1.000     O          -0.600896           
         O11       1.0000    0.43090   0.87240   0.30183   Biso      1.000     O          -0.699825           
         O12       1.0000    0.37450   0.22680   0.79786   Biso      1.000     O          -0.628503           
         O13       1.0000    0.70000   0.11010   0.74106   Biso      1.000     O          -0.704151           
         O14       1.0000    0.65730   0.31300   0.68762   Biso      1.000     O          -0.74323  
         O15       1.0000    0.48500   0.57290   0.31684   Biso      1.000     O          -0.62179  
         O16       1.0000    0.73270   0.59980   0.26959   Biso      1.000     O          -0.624161           
         O17       1.0000    0.65520   0.60050   0.36509   Biso      1.000     O          -0.687994           
         O18       1.0000    0.94690   0.32860   0.80089   Biso      1.000     O          -0.729857           
         O19       1.0000    0.26970   0.07010   0.76512   Biso      1.000     O          -0.636241           
         O20       1.0000    0.80560   0.35140   0.76866   Biso      1.000     O          -0.655245           
         O21       1.0000    0.98490   0.21320   0.69019   Biso      1.000     O          -0.770856           
         O22       1.0000    0.04470   0.00280   0.41340   Biso      1.000     O          -0.419815           
         O23       1.0000    0.87220   0.76250   0.30484   Biso      1.000     O          -0.616887           
         O24       1.0000    0.81020   0.92160   0.13926   Biso      1.000     O          -0.669442           
         O25       1.0000    0.12780   0.23750   0.69516   Biso      1.000     O          -0.616887           
         O26       1.0000    0.98260   0.97620   0.15480   Biso      1.000     O          -0.600896           
         O27       1.0000    0.62550   0.77320   0.20214   Biso      1.000     O          -0.628503           
         O28       1.0000    0.18980   0.07840   0.86074   Biso      1.000     O          -0.669443           
         O29       1.0000    0.34270   0.68700   0.31238   Biso      1.000     O          -0.74323  
         O30       1.0000    0.06580   0.95660   0.31265   Biso      1.000     O          -0.412694           
         O31       1.0000    0.51500   0.42710   0.68316   Biso      1.000     O          -0.62179  
         O32       1.0000    0.52820   0.69190   0.19748   Biso      1.000     O          -0.668905           
         O33       1.0000    0.01510   0.78680   0.30981   Biso      1.000     O          -0.770856           
         O34       1.0000    0.15360   0.86220   0.37488   Biso      1.000     O          -0.523742           
         O35       1.0000    0.73030   0.92990   0.23488   Biso      1.000     O          -0.636241           
         O36       1.0000    0.19440   0.64860   0.23134   Biso      1.000     O          -0.655245           
         O37       1.0000    0.56910   0.12760   0.69817   Biso      1.000     O          -0.699824           
         O38       1.0000    0.84640   0.13780   0.62512   Biso      1.000     O          -0.523742           
         Pr1       1.0000    0.19445   0.79564   0.27020   Biso      1.000     Pr          2.117892  
         Pr2       1.0000    0.54200   0.71129   0.30409   Biso      1.000     Pr          2.045891  
         Pr3       1.0000    0.45800   0.28871   0.69591   Biso      1.000     Pr          2.045891  
         Pr4       1.0000    0.93129   0.83239   0.20214   Biso      1.000     Pr          2.082709  
         Pr5       1.0000    0.80555   0.20436   0.72980   Biso      1.000     Pr          2.117892  
         Pr6       1.0000    0.06871   0.16761   0.79786   Biso      1.000     Pr          2.082709  
         Si1       1.0000    0.85811   0.67259   0.60763   Biso      1.000     Si          0.647497  
         Si2       1.0000    0.33131   0.21017   0.10694   Biso      1.000     Si          0.640643  
         Si3       1.0000    0.66869   0.78983   0.89306   Biso      1.000     Si          0.640643  
         Si4       1.0000    0.14189   0.32741   0.39237   Biso      1.000     Si          0.647501 