
##########################################################################
#               Crystallographic Information Format file
#               Produced by PyCifRW module
#
#  This is a CIF file.  CIF has been adopted by the International
#  Union of Crystallography as the standard for data archiving and
#  transmission.
#
#  For information on this file format, follow the CIF links at
#  http://www.iucr.org
##########################################################################

data_image0

_cell_length_a                          14.05
_cell_length_b                          16.3488
_cell_length_c                          16.602
_cell_angle_alpha                       105.881
_cell_angle_beta                        90
_cell_angle_gamma                       115.448
_symmetry_space_group_name_H-M          'P 1'
_symmetry_int_tables_number             1
loop_
  _symmetry_equiv_pos_as_xyz
         'x, y, z' 
loop_
  _atom_site_label
  _atom_site_occupancy
  _atom_site_fract_x
  _atom_site_fract_y
  _atom_site_fract_z
  _atom_site_thermal_displace_type
  _atom_site_B_iso_or_equiv
  _atom_site_type_symbol
  _atom_site_charge
         C1        1.0000    0.42650   0.44860   0.10310   Biso      1.000     C          -0.108576           
         C2        1.0000    0.10630   0.79360   0.25550   Biso      1.000     C          -0.107935           
         C3        1.0000    0.20770   0.86580   0.70490   Biso      1.000     C          -0.166843           
         C4        1.0000    0.75070   0.94660   0.73350   Biso      1.000     C          0.0761    
         C5        1.0000    0.85150   0.10840   0.71240   Biso      1.000     C          -0.159359           
         C6        1.0000    0.05890   0.58900   0.44530   Biso      1.000     C          -0.135903           
         C7        1.0000    0.68890   0.95520   0.26450   Biso      1.000     C          0.078644  
         C8        1.0000    0.81850   0.20820   0.18650   Biso      1.000     C          -0.014936           
         C9        1.0000    0.26630   0.95520   0.76450   Biso      1.000     C          0.078694  
         C10       1.0000    0.70830   0.89840   0.65020   Biso      1.000     C          -0.145714           
         C11       1.0000    0.28680   0.62300   0.99180   Biso      1.000     C          0.094173  
         C12       1.0000    0.12290   0.44180   0.59770   Biso      1.000     C          0.182464  
         C13       1.0000    0.19590   0.94660   0.23350   Biso      1.000     C          0.075584  
         C14       1.0000    0.79230   0.13420   0.29510   Biso      1.000     C          -0.166847           
         C15       1.0000    0.68110   0.55820   0.90230   Biso      1.000     C          0.18073   
         C16       1.0000    0.83420   0.49240   0.62470   Biso      1.000     C          -0.190258           
         C17       1.0000    0.86150   0.62220   0.46700   Biso      1.000     C          -0.205209           
         C18       1.0000    0.87710   0.55820   0.40230   Biso      1.000     C          0.182466  
         C19       1.0000    0.58080   0.42380   0.06180   Biso      1.000     C          0.169607  
         C20       1.0000    0.64030   0.88040   0.37190   Biso      1.000     C          -0.107031           
         C21       1.0000    0.35710   0.25380   0.33020   Biso      1.000     C          -0.031464           
         C22       1.0000    0.80410   0.05340   0.76650   Biso      1.000     C          0.075582  
         C23       1.0000    0.86160   0.62200   0.96820   Biso      1.000     C          0.090749  
         C24       1.0000    0.65610   0.80220   0.62190   Biso      1.000     C          -0.100274           
         C25       1.0000    0.85390   0.19780   0.87810   Biso      1.000     C          -0.099341           
         C26       1.0000    0.26070   0.49960   0.36670   Biso      1.000     C          0.077148  
         C27       1.0000    0.14850   0.89160   0.28760   Biso      1.000     C          -0.15936  
         C28       1.0000    0.05510   0.63940   0.13820   Biso      1.000     C          0.560243  
         C29       1.0000    0.68730   0.79360   0.75550   Biso      1.000     C          -0.106439           
         C30       1.0000    0.62330   0.78540   0.23260   Biso      1.000     C          -0.111526           
         C31       1.0000    0.41920   0.57620   0.93820   Biso      1.000     C          0.16962   
         C32       1.0000    0.30290   0.49960   0.65270   Biso      1.000     C          0.081771  
         C33       1.0000    0.24010   0.88040   0.87190   Biso      1.000     C          -0.105738           
         C34       1.0000    0.73370   0.04480   0.23550   Biso      1.000     C          0.078694  
         C35       1.0000    0.24480   0.63540   0.50210   Biso      1.000     C          -0.20285  
         C36       1.0000    0.25690   0.10840   0.21240   Biso      1.000     C          -0.159962           
         C37       1.0000    0.69710   0.50040   0.34730   Biso      1.000     C          0.081771  
         C38       1.0000    0.35970   0.11960   0.62810   Biso      1.000     C          -0.107028           
         C39       1.0000    0.76110   0.50040   0.13330   Biso      1.000     C          0.076135  
         C40       1.0000    0.80330   0.50040   0.84730   Biso      1.000     C          0.081729  
         C41       1.0000    0.31110   0.04480   0.73550   Biso      1.000     C          0.078644  
         C42       1.0000    0.34180   0.50760   0.87530   Biso      1.000     C          -0.189524           
         C43       1.0000    0.75520   0.36460   0.49790   Biso      1.000     C          -0.20285  
         C44       1.0000    0.71320   0.37700   0.00820   Biso      1.000     C          0.094174  
         C45       1.0000    0.84300   0.42380   0.56180   Biso      1.000     C          0.170862  
         C46       1.0000    0.79310   0.49980   0.34510   Biso      1.000     C          -0.187561           
         C47       1.0000    0.76040   0.62200   0.46820   Biso      1.000     C          0.090672  
         C48       1.0000    0.13840   0.37800   0.03180   Biso      1.000     C          0.09075   
         C49       1.0000    0.13100   0.70540   0.84490   Biso      1.000     C          0.547313  
         C50       1.0000    0.33620   0.62300   0.49180   Biso      1.000     C          0.096593  
         C51       1.0000    0.60940   0.36460   0.99790   Biso      1.000     C          -0.200146           
         C52       1.0000    0.65820   0.49240   0.12470   Biso      1.000     C          -0.189522           
         C53       1.0000    0.89370   0.20640   0.74450   Biso      1.000     C          -0.107939           
         C54       1.0000    0.23930   0.37780   0.03300   Biso      1.000     C          -0.204309           
         C55       1.0000    0.16580   0.50760   0.37530   Biso      1.000     C          -0.190258           
         C56       1.0000    0.16210   0.78540   0.73260   Biso      1.000     C          -0.111564           
         C57       1.0000    0.53010   0.58900   0.94530   Biso      1.000     C          -0.133954           
         C58       1.0000    0.89670   0.25380   0.83020   Biso      1.000     C          -0.031499           
         C59       1.0000    0.29330   0.50020   0.15490   Biso      1.000     C          -0.186925           
         C60       1.0000    0.71510   0.03860   0.15520   Biso      1.000     C          -0.156271           
         C61       1.0000    0.75990   0.11960   0.12810   Biso      1.000     C          -0.105735           
         C62       1.0000    0.19010   0.89840   0.15020   Biso      1.000     C          -0.14673  
         C63       1.0000    0.74310   0.89160   0.78760   Biso      1.000     C          -0.159961           
         C64       1.0000    0.18150   0.79180   0.81350   Biso      1.000     C          -0.014911           
         C65       1.0000    0.28490   0.96140   0.84480   Biso      1.000     C          -0.15627  
         C66       1.0000    0.10330   0.74620   0.16980   Biso      1.000     C          -0.031536           
         C67       1.0000    0.13850   0.37780   0.53300   Biso      1.000     C          -0.205207           
         C68       1.0000    0.97790   0.55140   0.39690   Biso      1.000     C          -0.107698           
         C69       1.0000    0.15700   0.57620   0.43820   Biso      1.000     C          0.170862  
         C70       1.0000    0.83790   0.21460   0.26740   Biso      1.000     C          -0.111537           
         C71       1.0000    0.86900   0.29460   0.15510   Biso      1.000     C          0.547315  
         C72       1.0000    0.23890   0.49960   0.86670   Biso      1.000     C          0.076135  
         C73       1.0000    0.66380   0.37700   0.50820   Biso      1.000     C          0.096593  
         C74       1.0000    0.24930   0.05340   0.26650   Biso      1.000     C          0.076101  
         C75       1.0000    0.38970   0.20820   0.68650   Biso      1.000     C          -0.013116           
         C76       1.0000    0.64290   0.74620   0.66980   Biso      1.000     C          -0.031427           
         C77       1.0000    0.46990   0.41100   0.05470   Biso      1.000     C          -0.13382  
         C78       1.0000    0.67650   0.96140   0.34480   Biso      1.000     C          -0.155428           
         C79       1.0000    0.37670   0.21460   0.76740   Biso      1.000     C          -0.111496           
         C80       1.0000    0.23960   0.37800   0.53180   Biso      1.000     C          0.090672  
         C81       1.0000    0.94110   0.41100   0.55470   Biso      1.000     C          -0.135903           
         C82       1.0000    0.34190   0.13420   0.79510   Biso      1.000     C          -0.166677           
         C83       1.0000    0.57440   0.70540   0.34490   Biso      1.000     C          0.545325  
         C84       1.0000    0.32350   0.03860   0.65520   Biso      1.000     C          -0.155429           
         C85       1.0000    0.42560   0.29460   0.65510   Biso      1.000     C          0.545327  
         C86       1.0000    0.14610   0.80220   0.12190   Biso      1.000     C          -0.099293           
         C87       1.0000    0.76070   0.62220   0.96700   Biso      1.000     C          -0.204301           
         C88       1.0000    0.57350   0.55140   0.89690   Biso      1.000     C          -0.108441           
         C89       1.0000    0.29170   0.10160   0.34980   Biso      1.000     C          -0.145719           
         C90       1.0000    0.94490   0.36060   0.86180   Biso      1.000     C          0.56024   
         C91       1.0000    0.19670   0.49960   0.15270   Biso      1.000     C          0.081747  
         C92       1.0000    0.73930   0.50040   0.63330   Biso      1.000     C          0.077148  
         C93       1.0000    0.70670   0.49980   0.84510   Biso      1.000     C          -0.186878           
         C94       1.0000    0.80990   0.10160   0.84980   Biso      1.000     C          -0.146713           
         C95       1.0000    0.31270   0.20640   0.24450   Biso      1.000     C          -0.106435           
         C96       1.0000    0.41570   0.36060   0.36180   Biso      1.000     C          0.55949   
         C97       1.0000    0.20690   0.50020   0.65490   Biso      1.000     C          -0.187561           
         C98       1.0000    0.58430   0.63940   0.63820   Biso      1.000     C          0.559487  
         C99       1.0000    0.34390   0.19780   0.37810   Biso      1.000     C          -0.100239           
         C100      1.0000    0.31890   0.44180   0.09770   Biso      1.000     C          0.180779  
         C101      1.0000    0.39060   0.63540   0.00210   Biso      1.000     C          -0.200144           
         C102      1.0000    0.61030   0.79180   0.31350   Biso      1.000     C          -0.01309  
         C103      1.0000    0.02210   0.44860   0.60310   Biso      1.000     C          -0.107698           
         C104      1.0000    0.65810   0.86580   0.20490   Biso      1.000     C          -0.166673           
         Cd1       1.0000    0.04594   0.55838   0.91134   Biso      1.000     Cd          0.861498  
         Cd2       1.0000    0.48756   0.44162   0.58866   Biso      1.000     Cd          0.860935  
         Cd3       1.0000    0.95406   0.44162   0.08866   Biso      1.000     Cd          0.861497  
         Cd4       1.0000    0.51244   0.55838   0.41134   Biso      1.000     Cd          0.860934  
         H1        1.0000    0.26810   0.66360   0.03210   Biso      1.000     H          0.097119  
         H2        1.0000    0.25140   0.33460   0.99000   Biso      1.000     H          0.127326  
         H3        1.0000    0.39550   0.66360   0.53210   Biso      1.000     H          0.095665  
         H4        1.0000    0.89380   0.53600   0.66390   Biso      1.000     H          0.133545  
         H5        1.0000    0.91680   0.66540   0.51000   Biso      1.000     H          0.127014  
         H6        1.0000    0.19930   0.86000   0.64770   Biso      1.000     H          0.108655  
         H7        1.0000    0.81040   0.54420   0.18010   Biso      1.000     H          0.107181  
         H8        1.0000    0.22510   0.07940   0.15640   Biso      1.000     H          0.118847  
         H9        1.0000    0.35780   0.46400   0.83610   Biso      1.000     H          0.132889  
         H10       1.0000    0.28450   0.06740   0.38770   Biso      1.000     H          0.111931  
         H11       1.0000    0.53040   0.50960   0.84650   Biso      1.000     H          0.123108  
         H12       1.0000    0.64220   0.53600   0.16390   Biso      1.000     H          0.132889  
         H13       1.0000    0.64170   0.45640   0.30460   Biso      1.000     H          0.096159  
         H14       1.0000    0.97920   0.50960   0.34650   Biso      1.000     H          0.123006  
         H15       1.0000    0.18530   0.54360   0.19540   Biso      1.000     H          0.095498  
         H16       1.0000    0.65480   0.45520   0.80030   Biso      1.000     H          0.12744   
         H17       1.0000    0.67170   0.97980   0.11650   Biso      1.000     H          0.112878  
         H18       1.0000    0.60890   0.72680   0.19420   Biso      1.000     H          0.107315  
         H19       1.0000    0.24910   0.33440   0.48720   Biso      1.000     H          0.094774  
         H20       1.0000    0.34520   0.54480   0.19970   Biso      1.000     H          0.127444  
         H21       1.0000    0.08530   0.33440   0.98720   Biso      1.000     H          0.094291  
         H22       1.0000    0.74860   0.66540   0.01000   Biso      1.000     H          0.127325  
         H23       1.0000    0.07880   0.75740   0.29200   Biso      1.000     H          0.109189  
         H24       1.0000    0.30810   0.97980   0.61650   Biso      1.000     H          0.112262  
         H25       1.0000    0.33930   0.14000   0.85230   Biso      1.000     H          0.108589  
         H26       1.0000    0.37230   0.22640   0.43480   Biso      1.000     H          0.111354  
         H27       1.0000    0.32140   0.24260   0.20800   Biso      1.000     H          0.108215  
         H28       1.0000    0.92120   0.24260   0.70800   Biso      1.000     H          0.109189  
         H29       1.0000    0.66070   0.86000   0.14770   Biso      1.000     H          0.108589  
         H30       1.0000    0.39110   0.27320   0.80580   Biso      1.000     H          0.107313  
         H31       1.0000    0.43910   0.68060   0.04880   Biso      1.000     H          0.135766  
         H32       1.0000    0.75050   0.11400   0.07110   Biso      1.000     H          0.114642  
         H33       1.0000    0.75850   0.31940   0.45120   Biso      1.000     H          0.13627   
         H34       1.0000    0.06030   0.63340   0.49480   Biso      1.000     H          0.102155  
         H35       1.0000    0.75090   0.66560   0.51280   Biso      1.000     H          0.094774  
         H36       1.0000    0.14570   0.92060   0.34360   Biso      1.000     H          0.11926   
         H37       1.0000    0.11790   0.72680   0.69420   Biso      1.000     H          0.107393  
         H38       1.0000    0.93970   0.36660   0.50520   Biso      1.000     H          0.102155  
         H39       1.0000    0.19960   0.54480   0.69970   Biso      1.000     H          0.127421  
         H40       1.0000    0.56090   0.31940   0.95120   Biso      1.000     H          0.135765  
         H41       1.0000    0.62770   0.77360   0.56520   Biso      1.000     H          0.111356  
         H42       1.0000    0.32830   0.02020   0.88350   Biso      1.000     H          0.112878  
         H43       1.0000    0.73380   0.54420   0.68010   Biso      1.000     H          0.106369  
         H44       1.0000    0.91470   0.66560   0.01280   Biso      1.000     H          0.09429   
         H45       1.0000    0.18960   0.45580   0.81990   Biso      1.000     H          0.107181  
         H46       1.0000    0.71550   0.93260   0.61230   Biso      1.000     H          0.111931  
         H47       1.0000    0.60450   0.33640   0.46790   Biso      1.000     H          0.095665  
         H48       1.0000    0.73190   0.33640   0.96790   Biso      1.000     H          0.097119  
         H49       1.0000    0.85430   0.07940   0.65640   Biso      1.000     H          0.11926   
         H50       1.0000    0.78290   0.06740   0.88770   Biso      1.000     H          0.112234  
         H51       1.0000    0.67860   0.75740   0.79200   Biso      1.000     H          0.108215  
         H52       1.0000    0.02080   0.49040   0.65350   Biso      1.000     H          0.123006  
         H53       1.0000    0.80070   0.14000   0.35230   Biso      1.000     H          0.108656  
         H54       1.0000    0.21710   0.93260   0.11230   Biso      1.000     H          0.112235  
         H55       1.0000    0.88210   0.27320   0.30580   Biso      1.000     H          0.107391  
         H56       1.0000    0.57310   0.63340   0.99480   Biso      1.000     H          0.101278  
         H57       1.0000    0.26620   0.45580   0.31990   Biso      1.000     H          0.106369  
         H58       1.0000    0.08320   0.33460   0.49000   Biso      1.000     H          0.127014  
         H59       1.0000    0.42690   0.36660   0.00520   Biso      1.000     H          0.10127   
         H60       1.0000    0.35830   0.54360   0.69540   Biso      1.000     H          0.096159  
         H61       1.0000    0.14590   0.77360   0.06520   Biso      1.000     H          0.110967  
         H62       1.0000    0.46960   0.49040   0.15350   Biso      1.000     H          0.123116  
         H63       1.0000    0.81470   0.45640   0.80460   Biso      1.000     H          0.0955    
         H64       1.0000    0.69190   0.02020   0.38350   Biso      1.000     H          0.112262  
         H65       1.0000    0.24150   0.68060   0.54880   Biso      1.000     H          0.13627   
         H66       1.0000    0.80040   0.45520   0.30030   Biso      1.000     H          0.127421  
         H67       1.0000    0.85410   0.22640   0.93480   Biso      1.000     H          0.11097   
         H68       1.0000    0.63650   0.88600   0.42890   Biso      1.000     H          0.114502  
         H69       1.0000    0.77490   0.92060   0.84360   Biso      1.000     H          0.118846  
         H70       1.0000    0.36350   0.11400   0.57110   Biso      1.000     H          0.114502  
         H71       1.0000    0.24950   0.88600   0.92890   Biso      1.000     H          0.114642  
         H72       1.0000    0.10620   0.46400   0.33610   Biso      1.000     H          0.133545  
         N1        1.0000    0.78770   0.44240   0.07120   Biso      1.000     N          -0.22829  
         N2        1.0000    0.67960   0.56280   0.40910   Biso      1.000     N          -0.213478           
         N3        1.0000    0.65470   0.44240   0.57120   Biso      1.000     N          -0.228156           
         N4        1.0000    0.11680   0.43720   0.09090   Biso      1.000     N          -0.212982           
         N5        1.0000    0.21230   0.55760   0.92880   Biso      1.000     N          -0.22829  
         N6        1.0000    0.88320   0.56280   0.90910   Biso      1.000     N          -0.21298  
         N7        1.0000    0.34530   0.55760   0.42880   Biso      1.000     N          -0.228156           
         N8        1.0000    0.32040   0.43720   0.59090   Biso      1.000     N          -0.213478           
         O1        1.0000    0.45094   0.40228   0.43970   Biso      1.000     O          -0.5863   
         O2        1.0000    0.01926   0.59372   0.19070   Biso      1.000     O          -0.552798           
         O3        1.0000    0.57446   0.59372   0.69070   Biso      1.000     O          -0.552204           
         O4        1.0000    0.57600   0.71620   0.42090   Biso      1.000     O          -0.532085           
         O5        1.0000    0.45950   0.37740   0.71330   Biso      1.000     O          -0.616057           
         O6        1.0000    0.85980   0.28380   0.07910   Biso      1.000     O          -0.533477           
         O7        1.0000    0.91790   0.37740   0.21330   Biso      1.000     O          -0.616326           
         O8        1.0000    0.08210   0.62260   0.78670   Biso      1.000     O          -0.616325           
         O9        1.0000    0.42554   0.40628   0.30930   Biso      1.000     O          -0.552202           
         O10       1.0000    0.42400   0.28380   0.57910   Biso      1.000     O          -0.532086           
         O11       1.0000    0.54906   0.59772   0.56030   Biso      1.000     O          -0.5863   
         O12       1.0000    0.04866   0.59772   0.06030   Biso      1.000     O          -0.586371           
         O13       1.0000    0.54050   0.62260   0.28670   Biso      1.000     O          -0.616055           
         O14       1.0000    0.98074   0.40628   0.80930   Biso      1.000     O          -0.552798           
         O15       1.0000    0.14020   0.71620   0.92090   Biso      1.000     O          -0.533478           
         O16       1.0000    0.95134   0.40228   0.93970   Biso      1.000     O          -0.58637 