
##########################################################################
#               Crystallographic Information Format file
#               Produced by PyCifRW module
#
#  This is a CIF file.  CIF has been adopted by the International
#  Union of Crystallography as the standard for data archiving and
#  transmission.
#
#  For information on this file format, follow the CIF links at
#  http://www.iucr.org
##########################################################################

data_image0

_cell_length_a                          5.882
_cell_length_b                          20.872
_cell_length_c                          20.872
_cell_angle_alpha                       90
_cell_angle_beta                        90
_cell_angle_gamma                       90
_symmetry_space_group_name_H-M          'P 1'
_symmetry_int_tables_number             1
loop_
  _symmetry_equiv_pos_as_xyz
         'x, y, z' 
loop_
  _atom_site_label
  _atom_site_occupancy
  _atom_site_fract_x
  _atom_site_fract_y
  _atom_site_fract_z
  _atom_site_thermal_displace_type
  _atom_site_B_iso_or_equiv
  _atom_site_type_symbol
  _atom_site_charge
         C1        1.0000    0.42140   0.44390   0.08210   Biso      1.000     C          -0.177786           
         C2        1.0000    0.90490   0.55280   0.34330   Biso      1.000     C          0.10271   
         C3        1.0000    0.20090   0.61700   0.48010   Biso      1.000     C          -0.018836000000000002         
         C4        1.0000    0.72680   0.79930   0.45770   Biso      1.000     C          0.13661900000000002           
         C5        1.0000    0.07860   0.41790   0.44390   Biso      1.000     C          -0.177786           
         C6        1.0000    0.79910   0.38300   0.51990   Biso      1.000     C          -0.018836000000000002         
         C7        1.0000    0.70090   0.51990   0.11700   Biso      1.000     C          -0.018836000000000002         
         C8        1.0000    0.72060   0.34230   0.57490   Biso      1.000     C          0.568771  
         C9        1.0000    0.56830   0.41770   0.04120   Biso      1.000     C          0.175251  
         C10       1.0000    0.72680   0.70070   0.04230   Biso      1.000     C          0.13662   
         C11       1.0000    0.93170   0.45880   0.41770   Biso      1.000     C          0.175252  
         C12       1.0000    0.43170   0.58230   0.95880   Biso      1.000     C          0.175222  
         C13       1.0000    0.15950   0.99190   0.57480   Biso      1.000     C          -0.080711           
         C14       1.0000    0.57860   0.94390   0.58210   Biso      1.000     C          -0.177785           
         C15       1.0000    0.72110   0.46360   0.44060   Biso      1.000     C          -0.187375           
         C16       1.0000    0.09510   0.05280   0.84330   Biso      1.000     C          0.102711  
         C17       1.0000    0.72060   0.15770   0.92510   Biso      1.000     C          0.568771  
         C18       1.0000    0.79910   0.11700   0.98010   Biso      1.000     C          -0.018836000000000002         
         C19       1.0000    0.27320   0.29930   0.95770   Biso      1.000     C          0.136621  
         C20       1.0000    0.22680   0.54230   0.29930   Biso      1.000     C          0.13661900000000002           
         C21       1.0000    0.50730   0.50370   0.87940   Biso      1.000     C          -0.083288           
         C22       1.0000    0.65950   0.07480   0.00810   Biso      1.000     C          -0.080683           
         C23       1.0000    0.34050   0.92520   0.99190   Biso      1.000     C          -0.080711           
         C24       1.0000    0.65950   0.42520   0.49190   Biso      1.000     C          -0.08068  
         C25       1.0000    0.90490   0.94720   0.15670   Biso      1.000     C          0.102709  
         C26       1.0000    0.99270   0.87940   0.99630   Biso      1.000     C          -0.083287           
         C27       1.0000    0.29910   0.01990   0.61700   Biso      1.000     C          -0.01881  
         C28       1.0000    0.34050   0.57480   0.50810   Biso      1.000     C          -0.080679           
         C29       1.0000    0.27890   0.53640   0.55940   Biso      1.000     C          -0.187401           
         C30       1.0000    0.77320   0.45770   0.70070   Biso      1.000     C          0.136621  
         C31       1.0000    0.93170   0.04120   0.08230   Biso      1.000     C          0.175222  
         C32       1.0000    0.27890   0.96360   0.94060   Biso      1.000     C          -0.187397           
         C33       1.0000    0.15950   0.50810   0.92520   Biso      1.000     C          -0.080715           
         C34       1.0000    0.56830   0.08230   0.45880   Biso      1.000     C          0.175223  
         C35       1.0000    0.06830   0.95880   0.91770   Biso      1.000     C          0.175251  
         C36       1.0000    0.06830   0.54120   0.58230   Biso      1.000     C          0.175251  
         C37       1.0000    0.27940   0.84230   0.07490   Biso      1.000     C          0.568766  
         C38       1.0000    0.72110   0.03640   0.05940   Biso      1.000     C          -0.187369           
         C39       1.0000    0.77940   0.57490   0.15770   Biso      1.000     C          0.568771  
         C40       1.0000    0.77890   0.44060   0.03640   Biso      1.000     C          -0.187374           
         C41       1.0000    0.77320   0.04230   0.79930   Biso      1.000     C          0.13662   
         C42       1.0000    0.57860   0.55610   0.91790   Biso      1.000     C          -0.177749           
         C43       1.0000    0.92140   0.58210   0.55610   Biso      1.000     C          -0.177757           
         C44       1.0000    0.00730   0.37940   0.49630   Biso      1.000     C          -0.083246           
         C45       1.0000    0.59510   0.34330   0.94720   Biso      1.000     C          0.102709  
         C46       1.0000    0.22680   0.95770   0.20070   Biso      1.000     C          0.136621  
         C47       1.0000    0.22060   0.07490   0.65770   Biso      1.000     C          0.568768  
         C48       1.0000    0.70090   0.98010   0.38300   Biso      1.000     C          -0.018836000000000002         
         C49       1.0000    0.84050   0.00810   0.42520   Biso      1.000     C          -0.080683           
         C50       1.0000    0.49270   0.00370   0.37940   Biso      1.000     C          -0.08325  
         C51       1.0000    0.84050   0.49190   0.07480   Biso      1.000     C          -0.08068  
         C52       1.0000    0.92140   0.91790   0.94390   Biso      1.000     C          -0.177752           
         C53       1.0000    0.99270   0.62060   0.50370   Biso      1.000     C          -0.083249           
         C54       1.0000    0.42140   0.05610   0.41790   Biso      1.000     C          -0.177755           
         C55       1.0000    0.22110   0.55940   0.96360   Biso      1.000     C          -0.187364           
         C56       1.0000    0.00730   0.12060   0.00370   Biso      1.000     C          -0.08325  
         C57       1.0000    0.40490   0.84330   0.44720   Biso      1.000     C          0.10271   
         C58       1.0000    0.50730   0.99630   0.62060   Biso      1.000     C          -0.083248           
         C59       1.0000    0.77890   0.05940   0.46360   Biso      1.000     C          -0.187369           
         C60       1.0000    0.59510   0.15670   0.55280   Biso      1.000     C          0.10271   
         C61       1.0000    0.43170   0.91770   0.54120   Biso      1.000     C          0.175251  
         C62       1.0000    0.40490   0.65670   0.05280   Biso      1.000     C          0.10271   
         C63       1.0000    0.22060   0.42510   0.84230   Biso      1.000     C          0.568766  
         C64       1.0000    0.09510   0.44720   0.65670   Biso      1.000     C          0.10271   
         C65       1.0000    0.49270   0.49630   0.12060   Biso      1.000     C          -0.083246           
         C66       1.0000    0.27320   0.20070   0.54230   Biso      1.000     C          0.13662   
         C67       1.0000    0.77940   0.92510   0.34230   Biso      1.000     C          0.568771  
         C68       1.0000    0.29910   0.48010   0.88300   Biso      1.000     C          -0.018778           
         C69       1.0000    0.20090   0.88300   0.01990   Biso      1.000     C          -0.018778           
         C70       1.0000    0.27940   0.65770   0.42510   Biso      1.000     C          0.568771  
         C71       1.0000    0.07860   0.08210   0.05610   Biso      1.000     C          -0.177754           
         C72       1.0000    0.22110   0.94060   0.53640   Biso      1.000     C          -0.187368           
         Cd1       1.0000    0.45997   0.76803   0.17012   Biso      1.000     Cd          0.9806090000000001  
         Cd2       1.0000    0.54003   0.23197   0.82988   Biso      1.000     Cd          0.9806090000000001  
         Cd3       1.0000    0.54003   0.26803   0.67012   Biso      1.000     Cd          0.98061   
         Cd4       1.0000    0.95997   0.67012   0.23197   Biso      1.000     Cd          0.98061   
         Cd5       1.0000    0.45997   0.73197   0.32988   Biso      1.000     Cd          0.98061   
         Cd6       1.0000    0.04003   0.17012   0.73197   Biso      1.000     Cd          0.98061   
         Cd7       1.0000    0.04003   0.32988   0.76803   Biso      1.000     Cd          0.9806090000000001  
         Cd8       1.0000    0.95997   0.82988   0.26803   Biso      1.000     Cd          0.9806090000000001  
         H1        1.0000    0.58900   0.15500   0.72300   Biso      1.000     H          0.40426599999999996           
         H2        1.0000    0.08900   0.27700   0.65500   Biso      1.000     H          0.404267  
         H3        1.0000    0.73880   0.35510   0.93270   Biso      1.000     H          0.11874100000000001           
         H4        1.0000    0.11010   0.35090   0.51460   Biso      1.000     H          0.11308199999999999           
         H5        1.0000    0.11760   0.57730   0.99210   Biso      1.000     H          0.12026500000000001           
         H6        1.0000    0.77410   0.58550   0.57190   Biso      1.000     H          0.125039  
         H7        1.0000    0.38240   0.99210   0.92270   Biso      1.000     H          0.120268  
         H8        1.0000    0.98760   0.50780   0.07100   Biso      1.000     H          0.098311  
         H9        1.0000    0.61010   0.48540   0.85090   Biso      1.000     H          0.11308499999999999           
         H10       1.0000    0.58900   0.34500   0.77700   Biso      1.000     H          0.404265  
         H11       1.0000    0.26120   0.85510   0.43270   Biso      1.000     H          0.11874100000000001           
         H12       1.0000    0.14960   0.27250   0.95030   Biso      1.000     H          0.11029000000000001           
         H13       1.0000    0.27410   0.07190   0.41450   Biso      1.000     H          0.125038  
         H14       1.0000    0.88240   0.07730   0.49210   Biso      1.000     H          0.12026600000000001           
         H15       1.0000    0.11760   0.92270   0.50790   Biso      1.000     H          0.12026600000000001           
         H16       1.0000    0.26120   0.64490   0.06730   Biso      1.000     H          0.11874100000000001           
         H17       1.0000    0.14960   0.22750   0.54970   Biso      1.000     H          0.11029000000000001           
         H18       1.0000    0.76120   0.93270   0.14490   Biso      1.000     H          0.11874100000000001           
         H19       1.0000    0.41100   0.84500   0.27700   Biso      1.000     H          0.404265  
         H20       1.0000    0.38240   0.50790   0.57730   Biso      1.000     H          0.120268  
         H21       1.0000    0.98760   0.99220   0.42900   Biso      1.000     H          0.098311  
         H22       1.0000    0.64960   0.45030   0.72750   Biso      1.000     H          0.11029000000000001           
         H23       1.0000    0.77410   0.91450   0.92810   Biso      1.000     H          0.125039  
         H24       1.0000    0.88240   0.42270   0.00790   Biso      1.000     H          0.12026700000000001           
         H25       1.0000    0.61760   0.49210   0.42270   Biso      1.000     H          0.12026600000000001           
         H26       1.0000    0.11010   0.14910   0.98540   Biso      1.000     H          0.11308199999999999           
         H27       1.0000    0.48760   0.57100   0.49220   Biso      1.000     H          0.09831000000000001           
         H28       1.0000    0.51240   0.07100   0.99220   Biso      1.000     H          0.098311  
         H29       1.0000    0.23880   0.06730   0.85510   Biso      1.000     H          0.11874100000000001           
         H30       1.0000    0.41100   0.65500   0.22300   Biso      1.000     H          0.40426599999999996           
         H31       1.0000    0.27410   0.42810   0.08550   Biso      1.000     H          0.125041  
         H32       1.0000    0.35040   0.95030   0.22750   Biso      1.000     H          0.11029000000000001           
         H33       1.0000    0.22590   0.41450   0.42810   Biso      1.000     H          0.125041  
         H34       1.0000    0.76120   0.56730   0.35510   Biso      1.000     H          0.11874100000000001           
         H35       1.0000    0.48760   0.92900   0.00780   Biso      1.000     H          0.098313  
         H36       1.0000    0.72590   0.57190   0.91450   Biso      1.000     H          0.125038  
         H37       1.0000    0.23880   0.43270   0.64490   Biso      1.000     H          0.11874100000000001           
         H38       1.0000    0.72590   0.92810   0.58550   Biso      1.000     H          0.125041  
         H39       1.0000    0.64960   0.04970   0.77250   Biso      1.000     H          0.11029000000000001           
         H40       1.0000    0.51240   0.42900   0.50780   Biso      1.000     H          0.098311  
         H41       1.0000    0.38990   0.51460   0.14910   Biso      1.000     H          0.11308199999999999           
         H42       1.0000    0.01240   0.49220   0.92900   Biso      1.000     H          0.098313  
         H43       1.0000    0.91100   0.72300   0.34500   Biso      1.000     H          0.404267  
         H44       1.0000    0.35040   0.54970   0.27250   Biso      1.000     H          0.11029000000000001           
         H45       1.0000    0.22590   0.08550   0.07190   Biso      1.000     H          0.125038  
         H46       1.0000    0.85040   0.77250   0.45030   Biso      1.000     H          0.11029000000000001           
         H47       1.0000    0.88990   0.85090   0.01460   Biso      1.000     H          0.11308499999999999           
         H48       1.0000    0.08900   0.22300   0.84500   Biso      1.000     H          0.404267  
         H49       1.0000    0.38990   0.98540   0.35090   Biso      1.000     H          0.11308199999999999           
         H50       1.0000    0.01240   0.00780   0.57100   Biso      1.000     H          0.098313  
         H51       1.0000    0.91100   0.77700   0.15500   Biso      1.000     H          0.404267  
         H52       1.0000    0.85040   0.72750   0.04970   Biso      1.000     H          0.11029000000000001           
         H53       1.0000    0.88990   0.64910   0.48540   Biso      1.000     H          0.11308199999999999           
         H54       1.0000    0.61760   0.00790   0.07730   Biso      1.000     H          0.12026600000000001           
         H55       1.0000    0.61010   0.01460   0.64910   Biso      1.000     H          0.11308199999999999           
         H56       1.0000    0.73880   0.14490   0.56730   Biso      1.000     H          0.11874100000000001           
         N1        1.0000    0.46400   0.20020   0.57990   Biso      1.000     N          -0.314416           
         N2        1.0000    0.21760   0.00570   0.15930   Biso      1.000     N          -0.263673           
         N3        1.0000    0.00890   0.99840   0.13200   Biso      1.000     N          0.129775  
         N4        1.0000    0.28240   0.34070   0.00570   Biso      1.000     N          -0.26367199999999996          
         N5        1.0000    0.78240   0.50570   0.65930   Biso      1.000     N          -0.26367199999999996          
         N6        1.0000    0.99110   0.49840   0.63200   Biso      1.000     N          0.129773  
         N7        1.0000    0.50890   0.86800   0.49840   Biso      1.000     N          0.129762  
         N8        1.0000    0.99110   0.00160   0.86800   Biso      1.000     N          0.129762  
         N9        1.0000    0.53600   0.79980   0.42010   Biso      1.000     N          -0.314416           
         N10       1.0000    0.00890   0.50160   0.36800   Biso      1.000     N          0.129762  
         N11       1.0000    0.46400   0.29980   0.92010   Biso      1.000     N          -0.314416           
         N12       1.0000    0.50890   0.63200   0.00160   Biso      1.000     N          0.12976400000000002           
         N13       1.0000    0.96400   0.42010   0.70020   Biso      1.000     N          -0.314416           
         N14       1.0000    0.49110   0.36800   0.99840   Biso      1.000     N          0.129773  
         N15       1.0000    0.21760   0.49430   0.34070   Biso      1.000     N          -0.26366  
         N16       1.0000    0.71760   0.84070   0.50570   Biso      1.000     N          -0.26366  
         N17       1.0000    0.49110   0.13200   0.50160   Biso      1.000     N          0.12976400000000002           
         N18       1.0000    0.03600   0.92010   0.20020   Biso      1.000     N          -0.314416           
         N19       1.0000    0.03600   0.57990   0.29980   Biso      1.000     N          -0.314416           
         N20       1.0000    0.28240   0.15930   0.49430   Biso      1.000     N          -0.26366100000000003          
         N21       1.0000    0.71760   0.65930   0.99430   Biso      1.000     N          -0.26366100000000003          
         N22       1.0000    0.96400   0.07990   0.79980   Biso      1.000     N          -0.314416           
         N23       1.0000    0.53600   0.70020   0.07990   Biso      1.000     N          -0.314416           
         N24       1.0000    0.78240   0.99430   0.84070   Biso      1.000     N          -0.26366100000000003          
         O1        1.0000    0.65440   0.59560   0.20110   Biso      1.000     O          -0.580905           
         O2        1.0000    0.52980   0.35520   0.59990   Biso      1.000     O          -0.574501           
         O3        1.0000    0.02980   0.09990   0.64480   Biso      1.000     O          -0.5745   
         O4        1.0000    0.15440   0.70110   0.40440   Biso      1.000     O          -0.580905           
         O5        1.0000    0.84560   0.20110   0.90440   Biso      1.000     O          -0.580905           
         O6        1.0000    0.34560   0.40440   0.79890   Biso      1.000     O          -0.580903           
         O7        1.0000    0.66540   0.31242   0.76660   Biso      1.000     O          -0.902315           
         O8        1.0000    0.15440   0.79890   0.09560   Biso      1.000     O          -0.580903           
         O9        1.0000    0.52980   0.14480   0.90010   Biso      1.000     O          -0.574501           
         O10       1.0000    0.16540   0.23340   0.81242   Biso      1.000     O          -0.902316           
         O11       1.0000    0.97020   0.90010   0.35520   Biso      1.000     O          -0.574501           
         O12       1.0000    0.97020   0.59990   0.14480   Biso      1.000     O          -0.574501           
         O13       1.0000    0.16540   0.26660   0.68758   Biso      1.000     O          -0.902316           
         O14       1.0000    0.34560   0.09560   0.70110   Biso      1.000     O          -0.580904           
         O15       1.0000    0.65440   0.90440   0.29890   Biso      1.000     O          -0.580904           
         O16       1.0000    0.47020   0.64480   0.40010   Biso      1.000     O          -0.574501           
         O17       1.0000    0.66540   0.18758   0.73340   Biso      1.000     O          -0.902315           
         O18       1.0000    0.33460   0.68758   0.23340   Biso      1.000     O          -0.902315           
         O19       1.0000    0.02980   0.40010   0.85520   Biso      1.000     O          -0.574499           
         O20       1.0000    0.83460   0.73340   0.31242   Biso      1.000     O          -0.902316           
         O21       1.0000    0.84560   0.29890   0.59560   Biso      1.000     O          -0.580905           
         O22       1.0000    0.33460   0.81242   0.26660   Biso      1.000     O          -0.902315           
         O23       1.0000    0.47020   0.85520   0.09990   Biso      1.000     O          -0.574499           
         O24       1.0000    0.83460   0.76660   0.18758   Biso      1.000     O          -0.902316 