
##########################################################################
#               Crystallographic Information Format file
#               Produced by PyCifRW module
#
#  This is a CIF file.  CIF has been adopted by the International
#  Union of Crystallography as the standard for data archiving and
#  transmission.
#
#  For information on this file format, follow the CIF links at
#  http://www.iucr.org
##########################################################################

data_image0

_cell_length_a                          10.5684
_cell_length_b                          10.5684
_cell_length_c                          10.9267
_cell_angle_alpha                       78.7836
_cell_angle_beta                        62.4925
_cell_angle_gamma                       108.745
_symmetry_space_group_name_H-M          'P 1'
_symmetry_int_tables_number             1
loop_
  _symmetry_equiv_pos_as_xyz
         'x, y, z' 
loop_
  _atom_site_label
  _atom_site_occupancy
  _atom_site_fract_x
  _atom_site_fract_y
  _atom_site_fract_z
  _atom_site_thermal_displace_type
  _atom_site_B_iso_or_equiv
  _atom_site_type_symbol
  _atom_site_charge
         C1        1.0000    0.68580   0.30450   0.24190   Biso      1.000     C          0.816092  
         C2        1.0000    0.90310   0.85030   0.66860   Biso      1.000     C          0.745355  
         C3        1.0000    0.49900   0.72390   0.37570   Biso      1.000     C          0.738836  
         C4        1.0000    0.31420   0.69550   0.75810   Biso      1.000     C          0.816092  
         C5        1.0000    0.16780   0.70900   0.78020   Biso      1.000     C          -0.540387           
         C6        1.0000    0.01890   0.57170   0.83140   Biso      1.000     C          0.746694  
         C7        1.0000    0.59960   0.87470   0.12430   Biso      1.000     C          0.740608  
         C8        1.0000    0.04640   0.92770   0.25810   Biso      1.000     C          0.816934  
         C9        1.0000    0.01080   0.05200   0.28020   Biso      1.000     C          -0.541286           
         C10       1.0000    0.09690   0.14970   0.33140   Biso      1.000     C          0.745355  
         C11       1.0000    0.50100   0.27610   0.62430   Biso      1.000     C          0.738836  
         C12       1.0000    0.83220   0.29100   0.21980   Biso      1.000     C          -0.540387           
         C13       1.0000    0.98110   0.42830   0.16860   Biso      1.000     C          0.746694  
         C14       1.0000    0.40040   0.12530   0.87570   Biso      1.000     C          0.740608  
         C15       1.0000    0.62470   0.87470   0.25000   Biso      1.000     C          -0.480249           
         C16       1.0000    0.37530   0.12530   0.75000   Biso      1.000     C          -0.480249           
         C17       1.0000    0.95360   0.07230   0.74190   Biso      1.000     C          0.816934  
         C18       1.0000    0.98920   0.94800   0.71980   Biso      1.000     C          -0.541285           
         Dy1       1.0000    0.24471   0.43131   0.62013   Biso      1.000     Dy          2.208404  
         Dy2       1.0000    0.44856   0.13516   0.12013   Biso      1.000     Dy          2.208788  
         Dy3       1.0000    0.55144   0.86484   0.87987   Biso      1.000     Dy          2.208787  
         Dy4       1.0000    0.75529   0.56869   0.37987   Biso      1.000     Dy          2.208402  
         H1        1.0000    0.39210   0.04980   0.71710   Biso      1.000     H          0.181303  
         H2        1.0000    0.96390   0.88630   0.81480   Biso      1.000     H          0.186711  
         H3        1.0000    0.10480   0.98960   0.64640   Biso      1.000     H          0.165316  
         H4        1.0000    0.73310   0.89080   0.21710   Biso      1.000     H          0.181712  
         H5        1.0000    0.86400   0.24880   0.14640   Biso      1.000     H          0.16519   
         H6        1.0000    0.13600   0.75120   0.85360   Biso      1.000     H          0.16519   
         H7        1.0000    0.60790   0.95020   0.28290   Biso      1.000     H          0.181303  
         H8        1.0000    0.03610   0.11370   0.18520   Biso      1.000     H          0.186711  
         H9        1.0000    0.89520   0.01040   0.35360   Biso      1.000     H          0.165316  
         H10       1.0000    0.26690   0.10920   0.78290   Biso      1.000     H          0.181712  
         H11       1.0000    0.20110   0.77870   0.68520   Biso      1.000     H          0.186052  
         H12       1.0000    0.79890   0.22130   0.31480   Biso      1.000     H          0.186052  
         O1        1.0000    0.18620   0.94260   0.20820   Biso      1.000     O          -0.7002   
         O2        1.0000    0.01620   0.18730   0.42770   Biso      1.000     O          -0.574266           
         O3        1.0000    0.24603   0.19113   0.27410   Biso      1.000     O          -0.794261           
         O4        1.0000    0.64767   0.30843   0.55910   Biso      1.000     O          -0.615135           
         O5        1.0000    0.65080   0.39440   0.29180   Biso      1.000     O          -0.699917           
         O6        1.0000    0.60130   0.21790   0.21440   Biso      1.000     O          -0.77637  
         O7        1.0000    0.11500   0.44390   0.07230   Biso      1.000     O          -0.574772           
         O8        1.0000    0.93230   0.81570   0.28560   Biso      1.000     O          -0.776762           
         O9        1.0000    0.96523   0.52013   0.22590   Biso      1.000     O          -0.795024           
         O10       1.0000    0.45790   0.36850   0.59180   Biso      1.000     O          -0.800763           
         O11       1.0000    0.53970   0.95030   0.09180   Biso      1.000     O          -0.801257           
         O12       1.0000    0.35233   0.69157   0.44090   Biso      1.000     O          -0.615135           
         O13       1.0000    0.03477   0.47987   0.77410   Biso      1.000     O          -0.795024           
         O14       1.0000    0.88500   0.55610   0.92770   Biso      1.000     O          -0.574772           
         O15       1.0000    0.34920   0.60560   0.70820   Biso      1.000     O          -0.699917           
         O16       1.0000    0.39870   0.78210   0.78560   Biso      1.000     O          -0.77637  
         O17       1.0000    0.54210   0.63150   0.40820   Biso      1.000     O          -0.800763           
         O18       1.0000    0.75397   0.80887   0.72590   Biso      1.000     O          -0.794261           
         O19       1.0000    0.98380   0.81270   0.57230   Biso      1.000     O          -0.574266           
         O20       1.0000    0.81380   0.05740   0.79180   Biso      1.000     O          -0.7002   
         O21       1.0000    0.06770   0.18430   0.71440   Biso      1.000     O          -0.776762           
         O22       1.0000    0.36753   0.20677   0.94090   Biso      1.000     O          -0.617346           
         O23       1.0000    0.63247   0.79323   0.05910   Biso      1.000     O          -0.617346           
         O24       1.0000    0.46030   0.04970   0.90820   Biso      1.000     O          -0.801257 