
##########################################################################
#               Crystallographic Information Format file
#               Produced by PyCifRW module
#
#  This is a CIF file.  CIF has been adopted by the International
#  Union of Crystallography as the standard for data archiving and
#  transmission.
#
#  For information on this file format, follow the CIF links at
#  http://www.iucr.org
##########################################################################

data_image0

_cell_length_a                          6.0867
_cell_length_b                          9.483
_cell_length_c                          10.096
_cell_angle_alpha                       88.612
_cell_angle_beta                        74.385
_cell_angle_gamma                       77.132
_symmetry_space_group_name_H-M          'P 1'
_symmetry_int_tables_number             1
loop_
  _symmetry_equiv_pos_as_xyz
         'x, y, z' 
loop_
  _atom_site_label
  _atom_site_occupancy
  _atom_site_fract_x
  _atom_site_fract_y
  _atom_site_fract_z
  _atom_site_thermal_displace_type
  _atom_site_B_iso_or_equiv
  _atom_site_type_symbol
  _atom_site_charge
         C1        1.0000    0.16200   0.46590   0.57570   Biso      1.000     C          -0.110037           
         C2        1.0000    0.90700   0.39140   0.45530   Biso      1.000     C          -0.022174           
         C3        1.0000    0.83900   0.79360   0.42250   Biso      1.000     C          0.673776  
         C4        1.0000    0.92700   0.95260   0.98340   Biso      1.000     C          0.512578  
         C5        1.0000    0.83800   0.53410   0.42430   Biso      1.000     C          -0.110035           
         C6        1.0000    0.07300   0.35880   0.53390   Biso      1.000     C          -0.031657           
         C7        1.0000    0.07300   0.04740   0.01660   Biso      1.000     C          0.512579  
         C8        1.0000    0.16100   0.20640   0.57750   Biso      1.000     C          0.673776  
         C9        1.0000    0.19200   0.72170   0.59220   Biso      1.000     C          0.593642  
         C10       1.0000    0.09300   0.60860   0.54470   Biso      1.000     C          -0.022172           
         C11       1.0000    0.80800   0.27830   0.40780   Biso      1.000     C          0.593642  
         C12       1.0000    0.92700   0.64120   0.46610   Biso      1.000     C          -0.031658           
         Gd1       1.0000    0.34520   0.94175   0.70299   Biso      1.000     Gd          2.003279  
         Gd2       1.0000    0.65480   0.05825   0.29701   Biso      1.000     Gd          2.003279  
         H1        1.0000    0.27150   0.44150   0.62620   Biso      1.000     H          0.13925   
         H2        1.0000    0.62160   0.03140   0.64860   Biso      1.000     H          0.36080999999999996           
         H3        1.0000    0.26700   0.88370   0.29540   Biso      1.000     H          0.490807  
         H4        1.0000    0.37840   0.96860   0.35140   Biso      1.000     H          0.36080999999999996           
         H5        1.0000    0.73300   0.11630   0.70460   Biso      1.000     H          0.490807  
         H6        1.0000    0.72850   0.55850   0.37380   Biso      1.000     H          0.13925   
         O1        1.0000    0.33650   0.12370   0.49790   Biso      1.000     O          -0.7600180000000001           
         O2        1.0000    0.32660   0.68850   0.66890   Biso      1.000     O          -0.6162340000000001           
         O3        1.0000    0.13480   0.85240   0.55790   Biso      1.000     O          -0.631436           
         O4        1.0000    0.74720   0.93790   0.07380   Biso      1.000     O          -0.5702649999999999           
         O5        1.0000    0.25280   0.06210   0.92620   Biso      1.000     O          -0.5702649999999999           
         O6        1.0000    0.39820   0.90400   0.28980   Biso      1.000     O          -0.83601  
         O7        1.0000    0.06290   0.16990   0.69330   Biso      1.000     O          -0.575584           
         O8        1.0000    0.86520   0.14760   0.44210   Biso      1.000     O          -0.6314350000000001           
         O9        1.0000    0.67340   0.31150   0.33110   Biso      1.000     O          -0.6162340000000001           
         O10       1.0000    0.66350   0.87630   0.50210   Biso      1.000     O          -0.7600180000000001           
         O11       1.0000    0.00460   0.10590   0.13920   Biso      1.000     O          -0.620729           
         O12       1.0000    0.60180   0.09600   0.71020   Biso      1.000     O          -0.83601  
         O13       1.0000    0.99540   0.89410   0.86080   Biso      1.000     O          -0.620729           
         O14       1.0000    0.93710   0.83010   0.30670   Biso      1.000     O          -0.575584 