
##########################################################################
#               Crystallographic Information Format file
#               Produced by PyCifRW module
#
#  This is a CIF file.  CIF has been adopted by the International
#  Union of Crystallography as the standard for data archiving and
#  transmission.
#
#  For information on this file format, follow the CIF links at
#  http://www.iucr.org
##########################################################################

data_image0

_cell_length_a                          8.9473
_cell_length_b                          12.3223
_cell_length_c                          20.0651
_cell_angle_alpha                       85.3571
_cell_angle_beta                        77.1174
_cell_angle_gamma                       68.7121
_symmetry_space_group_name_H-M          'P 1'
_symmetry_int_tables_number             1
loop_
  _symmetry_equiv_pos_as_xyz
         'x, y, z' 
loop_
  _atom_site_label
  _atom_site_occupancy
  _atom_site_fract_x
  _atom_site_fract_y
  _atom_site_fract_z
  _atom_site_thermal_displace_type
  _atom_site_B_iso_or_equiv
  _atom_site_type_symbol
  _atom_site_charge
         C1        1.0000    0.42278   0.51622   0.75022   Biso      1.000     C          -0.113554           
         C2        1.0000    0.24689   0.28700   0.46702   Biso      1.000     C          0.62535   
         C3        1.0000    0.75612   0.61550   0.15586   Biso      1.000     C          0.5892649999999999  
         C4        1.0000    0.36810   0.00000   0.00000   Biso      1.000     C          -0.140104           
         C5        1.0000    0.03914   0.90638   0.72974   Biso      1.000     C          -0.041832999999999995         
         C6        1.0000    0.64133   0.68092   0.27782   Biso      1.000     C          -0.129297           
         C7        1.0000    0.09994   0.39828   0.48404   Biso      1.000     C          -0.029705000000000002         
         C8        1.0000    0.57458   0.55028   0.36556   Biso      1.000     C          -0.088032           
         C9        1.0000    0.07225   0.81908   0.77782   Biso      1.000     C          -0.130427           
         C10       1.0000    0.49042   0.44972   0.63444   Biso      1.000     C          -0.089021           
         C11       1.0000    0.01231   0.74162   0.89696   Biso      1.000     C          0.618608  
         C12       1.0000    0.87486   0.94972   0.86556   Biso      1.000     C          -0.08932000000000001          
         C13       1.0000    0.68900   0.98378   0.25022   Biso      1.000     C          -0.114344           
         C14       1.0000    0.84307   0.03832   0.81714   Biso      1.000     C          -0.077201           
         C15       1.0000    0.11810   0.50000   0.50000   Biso      1.000     C          -0.141467           
         C16       1.0000    0.20218   0.53904   0.05300   Biso      1.000     C          0.547258  
         C17       1.0000    0.69552   0.59362   0.22974   Biso      1.000     C          -0.039527           
         C18       1.0000    0.65927   0.24162   0.60304   Biso      1.000     C          0.614533  
         C19       1.0000    0.00518   0.03904   0.44700   Biso      1.000     C          0.546201  
         C20       1.0000    0.80850   0.50000   0.50000   Biso      1.000     C          -0.08427  
         C21       1.0000    0.51888   0.40638   0.77026   Biso      1.000     C          -0.040347           
         C22       1.0000    0.69014   0.05028   0.13444   Biso      1.000     C          -0.089574           
         C23       1.0000    0.67526   0.09362   0.27026   Biso      1.000     C          -0.03949  
         C24       1.0000    0.49122   0.96096   0.55300   Biso      1.000     C          0.546371  
         C25       1.0000    0.12162   0.88450   0.65586   Biso      1.000     C          0.591938  
         C26       1.0000    0.79422   0.46096   0.94700   Biso      1.000     C          0.546074  
         C27       1.0000    0.05850   0.00000   0.00000   Biso      1.000     C          -0.08516  
         C28       1.0000    0.67471   0.16032   0.15446   Biso      1.000     C          -0.032346           
         C29       1.0000    0.94392   0.39858   0.48438   Biso      1.000     C          -0.099575           
         C30       1.0000    0.58503   0.33968   0.65446   Biso      1.000     C          -0.032293999999999996         
         C31       1.0000    0.09250   0.10142   0.98438   Biso      1.000     C          -0.098412           
         C32       1.0000    0.50393   0.75838   0.39696   Biso      1.000     C          0.616618  
         C33       1.0000    0.65089   0.25838   0.10304   Biso      1.000     C          0.61673   
         C34       1.0000    0.68922   0.48378   0.24978   Biso      1.000     C          -0.11483399999999999          
         C35       1.0000    0.57917   0.66032   0.34554   Biso      1.000     C          -0.032622000000000005         
         C36       1.0000    0.66198   0.11550   0.34414   Biso      1.000     C          0.589495  
         C37       1.0000    0.92300   0.01622   0.74978   Biso      1.000     C          -0.11136300000000002          
         C38       1.0000    0.69853   0.96168   0.18286   Biso      1.000     C          -0.07581  
         C39       1.0000    0.00091   0.71300   0.53298   Biso      1.000     C          0.624727  
         C40       1.0000    0.60007   0.31908   0.72218   Biso      1.000     C          -0.129494           
         C41       1.0000    0.66915   0.18092   0.22218   Biso      1.000     C          -0.130301           
         C42       1.0000    0.28389   0.21300   0.96702   Biso      1.000     C          0.62456   
         C43       1.0000    0.41021   0.53832   0.68286   Biso      1.000     C          -0.07664  
         C44       1.0000    0.63139   0.46168   0.31714   Biso      1.000     C          -0.07601000000000001          
         C45       1.0000    0.24822   0.10172   0.98404   Biso      1.000     C          -0.030433999999999996         
         C46       1.0000    0.46391   0.78700   0.03298   Biso      1.000     C          0.62215   
         C47       1.0000    0.98226   0.60172   0.51596   Biso      1.000     C          -0.028428           
         C48       1.0000    0.82688   0.60142   0.51562   Biso      1.000     C          -0.10015800000000001          
         C49       1.0000    0.33398   0.89828   0.01596   Biso      1.000     C          -0.029138999999999998         
         C50       1.0000    0.98949   0.83968   0.84554   Biso      1.000     C          -0.032873           
         C51       1.0000    0.17830   0.89858   0.01562   Biso      1.000     C          -0.09874  
         C52       1.0000    0.52748   0.38450   0.84414   Biso      1.000     C          0.591703  
         H1        1.0000    0.69470   0.03620   0.08900   Biso      1.000     H          0.12324700000000001           
         H2        1.0000    0.66110   0.25400   0.23520   Biso      1.000     H          0.123207  
         H3        1.0000    0.93060   0.33080   0.47420   Biso      1.000     H          0.114918  
         H4        1.0000    0.76810   0.11220   0.83020   Biso      1.000     H          0.11590299999999999           
         H5        1.0000    0.34830   0.61220   0.66980   Biso      1.000     H          0.11598699999999999           
         H6        1.0000    0.89950   0.07500   0.71740   Biso      1.000     H          0.11533299999999999           
         H7        1.0000    0.72450   0.42500   0.21740   Biso      1.000     H          0.11621500000000001           
         H8        1.0000    0.71050   0.88780   0.16980   Biso      1.000     H          0.11553599999999999           
         H9        1.0000    0.15480   0.83080   0.02580   Biso      1.000     H          0.113849  
         H10       1.0000    0.66510   0.24600   0.73520   Biso      1.000     H          0.12236400000000001           
         H11       1.0000    0.15030   0.74600   0.76480   Biso      1.000     H          0.1233    
         H12       1.0000    0.81990   0.96380   0.91100   Biso      1.000     H          0.123504  
         H13       1.0000    0.70400   0.50000   0.50000   Biso      1.000     H          0.10963599999999998           
         H14       1.0000    0.99900   0.09400   0.41220   Biso      1.000     H          0.031764  
         H15       1.0000    0.50520   0.90600   0.58780   Biso      1.000     H          0.031471  
         H16       1.0000    0.63030   0.38780   0.33020   Biso      1.000     H          0.11574300000000001           
         H17       1.0000    0.36690   0.57500   0.78260   Biso      1.000     H          0.116121  
         H18       1.0000    0.21400   0.50000   0.50000   Biso      1.000     H          0.129999  
         H19       1.0000    0.53370   0.53620   0.41100   Biso      1.000     H          0.122649  
         H20       1.0000    0.84300   0.40600   0.91220   Biso      1.000     H          0.031639  
         H21       1.0000    0.48090   0.46380   0.58900   Biso      1.000     H          0.12306700000000001           
         H22       1.0000    0.95400   0.00000   0.00000   Biso      1.000     H          0.109705  
         H23       1.0000    0.73560   0.66920   0.52580   Biso      1.000     H          0.115023  
         H24       1.0000    0.16120   0.59400   0.08780   Biso      1.000     H          0.031187  
         H25       1.0000    0.69190   0.92500   0.28260   Biso      1.000     H          0.11624300000000001           
         H26       1.0000    0.01140   0.16920   0.97420   Biso      1.000     H          0.114249  
         H27       1.0000    0.46400   0.00000   0.00000   Biso      1.000     H          0.12976500000000002           
         H28       1.0000    0.64630   0.75400   0.26480   Biso      1.000     H          0.12184400000000001           
         Mn1       1.0000    0.14442   0.46984   0.91140   Biso      1.000     Mn          1.051931  
         Mn2       1.0000    0.52566   0.53016   0.08860   Biso      1.000     Mn          1.051503  
         Mn3       1.0000    0.52609   0.33930   0.97330   Biso      1.000     Mn          0.9950610000000001  
         Mn4       1.0000    0.80582   0.96984   0.58860   Biso      1.000     Mn          1.053149  
         Mn5       1.0000    0.83869   0.66070   0.02670   Biso      1.000     Mn          0.9950680000000001  
         Mn6       1.0000    0.24939   0.83930   0.52670   Biso      1.000     Mn          0.9950450000000001  
         Mn7       1.0000    0.61539   0.16070   0.47330   Biso      1.000     Mn          0.9943139999999999  
         Mn8       1.0000    0.36426   0.03016   0.41140   Biso      1.000     Mn          1.0521    
         O1        1.0000    0.82794   0.68658   0.13874   Biso      1.000     O          -0.527654           
         O2        1.0000    0.38050   0.28684   0.47596   Biso      1.000     O          -0.552776           
         O3        1.0000    0.87097   0.52414   0.95432   Biso      1.000     O          -0.517323           
         O4        1.0000    0.10163   0.64252   0.87502   Biso      1.000     O          -0.5795130000000001           
         O5        1.0000    0.59330   0.05956   0.38904   Biso      1.000     O          -0.599286           
         O6        1.0000    0.41754   0.70366   0.05546   Biso      1.000     O          -0.6039869999999999           
         O7        1.0000    0.65326   0.31342   0.86126   Biso      1.000     O          -0.528424           
         O8        1.0000    0.04190   0.94044   0.61096   Biso      1.000     O          -0.599964           
         O9        1.0000    0.64146   0.26620   0.54248   Biso      1.000     O          -0.554979           
         O10       1.0000    0.72665   0.14252   0.62498   Biso      1.000     O          -0.5777899999999999           
         O11       1.0000    0.61917   0.35748   0.12498   Biso      1.000     O          -0.578994           
         O12       1.0000    0.60646   0.78684   0.02404   Biso      1.000     O          -0.5515369999999999           
         O13       1.0000    0.39050   0.96392   0.51828   Biso      1.000     O          -0.506916           
         O14       1.0000    0.73234   0.55956   0.11096   Biso      1.000     O          -0.598512           
         O15       1.0000    0.65878   0.46392   0.98172   Biso      1.000     O          -0.5079600000000001           
         O16       1.0000    0.17666   0.29634   0.94454   Biso      1.000     O          -0.605434           
         O17       1.0000    0.14511   0.97586   0.45432   Biso      1.000     O          -0.518116           
         O18       1.0000    0.22300   0.20366   0.44454   Biso      1.000     O          -0.605527           
         O19       1.0000    0.87120   0.79634   0.55546   Biso      1.000     O          -0.606252           
         O20       1.0000    0.41734   0.21316   0.97596   Biso      1.000     O          -0.551706           
         O21       1.0000    0.71668   0.18658   0.36126   Biso      1.000     O          -0.527209           
         O22       1.0000    0.40286   0.44044   0.88904   Biso      1.000     O          -0.600435           
         O23       1.0000    0.26452   0.81342   0.63874   Biso      1.000     O          -0.528516           
         O24       1.0000    0.49415   0.85748   0.37502   Biso      1.000     O          -0.5789   
         O25       1.0000    0.14330   0.71316   0.52404   Biso      1.000     O          -0.551751           
         O26       1.0000    0.10442   0.53608   0.01828   Biso      1.000     O          -0.5090520000000001           
         O27       1.0000    0.34943   0.47586   0.04568   Biso      1.000     O          -0.5171319999999999           
         O28       1.0000    0.87270   0.03608   0.48172   Biso      1.000     O          -0.507085           
         O29       1.0000    0.93394   0.76620   0.95752   Biso      1.000     O          -0.557153           
         O30       1.0000    0.65766   0.23380   0.04248   Biso      1.000     O          -0.556333           
         O31       1.0000    0.45014   0.73380   0.45752   Biso      1.000     O          -0.556457           
         O32       1.0000    0.57529   0.02414   0.54568   Biso      1.000     O          -0.5183989999999999 