
##########################################################################
#               Crystallographic Information Format file
#               Produced by PyCifRW module
#
#  This is a CIF file.  CIF has been adopted by the International
#  Union of Crystallography as the standard for data archiving and
#  transmission.
#
#  For information on this file format, follow the CIF links at
#  http://www.iucr.org
##########################################################################

data_image0

_cell_length_a                          9.001
_cell_length_b                          11.966
_cell_length_c                          15.106
_cell_angle_alpha                       90
_cell_angle_beta                        99.66
_cell_angle_gamma                       90
_symmetry_space_group_name_H-M          'P 1'
_symmetry_int_tables_number             1
loop_
  _symmetry_equiv_pos_as_xyz
         'x, y, z' 
loop_
  _atom_site_label
  _atom_site_occupancy
  _atom_site_fract_x
  _atom_site_fract_y
  _atom_site_fract_z
  _atom_site_thermal_displace_type
  _atom_site_B_iso_or_equiv
  _atom_site_type_symbol
  _atom_site_charge
         C1        1.0000    0.97590   0.95920   0.01150   Biso      1.000     C          0.647546  
         C2        1.0000    0.70230   0.78230   0.85790   Biso      1.000     C          -0.13469  
         C3        1.0000    0.38540   0.74210   0.98450   Biso      1.000     C          -0.282325           
         C4        1.0000    0.36000   0.80830   0.06640   Biso      1.000     C          0.643741  
         C5        1.0000    0.81880   0.71200   0.09320   Biso      1.000     C          0.6487850000000001  
         C6        1.0000    0.85830   0.71810   0.99890   Biso      1.000     C          -0.285667           
         C7        1.0000    0.38830   0.89300   0.87560   Biso      1.000     C          -0.318171           
         C8        1.0000    0.47330   0.00060   0.86630   Biso      1.000     C          0.652142  
         C9        1.0000    0.91850   0.89170   0.92820   Biso      1.000     C          -0.294451           
         C10       1.0000    0.05690   0.76910   0.37590   Biso      1.000     C          -0.124322           
         C11       1.0000    0.20230   0.71770   0.35790   Biso      1.000     C          -0.134688           
         C12       1.0000    0.88540   0.75790   0.48450   Biso      1.000     C          -0.282327           
         C13       1.0000    0.86000   0.69170   0.56640   Biso      1.000     C          0.643742  
         C14       1.0000    0.31880   0.78800   0.59320   Biso      1.000     C          0.648783  
         C15       1.0000    0.35830   0.78190   0.49890   Biso      1.000     C          -0.285668           
         C16       1.0000    0.88830   0.60700   0.37560   Biso      1.000     C          -0.31817  
         C17       1.0000    0.97330   0.49940   0.36630   Biso      1.000     C          0.652142  
         C18       1.0000    0.41850   0.60830   0.42820   Biso      1.000     C          -0.294452           
         C19       1.0000    0.47590   0.54080   0.51150   Biso      1.000     C          0.647547  
         C20       1.0000    0.55690   0.26910   0.37590   Biso      1.000     C          -0.124323           
         C21       1.0000    0.70230   0.21770   0.35790   Biso      1.000     C          -0.134689           
         C22       1.0000    0.38540   0.25790   0.48450   Biso      1.000     C          -0.282327           
         C23       1.0000    0.36000   0.19170   0.56640   Biso      1.000     C          0.643742  
         C24       1.0000    0.81880   0.28800   0.59320   Biso      1.000     C          0.648783  
         C25       1.0000    0.85830   0.28190   0.49890   Biso      1.000     C          -0.285668           
         C26       1.0000    0.38830   0.10700   0.37560   Biso      1.000     C          -0.318171           
         C27       1.0000    0.47330   0.99940   0.36630   Biso      1.000     C          0.652141  
         C28       1.0000    0.91850   0.10830   0.42820   Biso      1.000     C          -0.294453           
         C29       1.0000    0.55690   0.73090   0.87590   Biso      1.000     C          -0.124324           
         C30       1.0000    0.47590   0.45920   0.01150   Biso      1.000     C          0.647546  
         C31       1.0000    0.97590   0.04080   0.51150   Biso      1.000     C          0.6475479999999999  
         C32       1.0000    0.88540   0.24210   0.98450   Biso      1.000     C          -0.282325           
         C33       1.0000    0.97330   0.50060   0.86630   Biso      1.000     C          0.652143  
         C34       1.0000    0.05690   0.23090   0.87590   Biso      1.000     C          -0.124324           
         C35       1.0000    0.20230   0.28230   0.85790   Biso      1.000     C          -0.134691           
         C36       1.0000    0.41850   0.39170   0.92820   Biso      1.000     C          -0.294452           
         C37       1.0000    0.86000   0.30830   0.06640   Biso      1.000     C          0.643741  
         C38       1.0000    0.31880   0.21200   0.09320   Biso      1.000     C          0.648784  
         C39       1.0000    0.35830   0.21810   0.99890   Biso      1.000     C          -0.285667           
         C40       1.0000    0.88830   0.39300   0.87560   Biso      1.000     C          -0.318171           
         Fe1       1.0000    0.64982   0.08402   0.53243   Biso      1.000     Fe          1.075272  
         Fe2       1.0000    0.14982   0.58402   0.53243   Biso      1.000     Fe          1.075283  
         Fe3       1.0000    0.14982   0.41598   0.03243   Biso      1.000     Fe          1.075277  
         Fe4       1.0000    0.64982   0.91598   0.03243   Biso      1.000     Fe          1.075281  
         H1        1.0000    0.25650   0.22880   0.82710   Biso      1.000     H          0.11917699999999999           
         H2        1.0000    0.07850   0.83950   0.40710   Biso      1.000     H          0.11156600000000001           
         H3        1.0000    0.25650   0.77120   0.32710   Biso      1.000     H          0.119182  
         H4        1.0000    0.18030   0.65260   0.31960   Biso      1.000     H          0.124855  
         H5        1.0000    0.18030   0.34740   0.81960   Biso      1.000     H          0.124848  
         H6        1.0000    0.93540   0.82780   0.50350   Biso      1.000     H          0.147148  
         H7        1.0000    0.78910   0.77520   0.44780   Biso      1.000     H          0.140472  
         H8        1.0000    0.07850   0.16050   0.90710   Biso      1.000     H          0.11156400000000001           
         H9        1.0000    0.46720   0.78080   0.50410   Biso      1.000     H          0.149079  
         H10       1.0000    0.32240   0.84960   0.46690   Biso      1.000     H          0.14851099999999998           
         H11       1.0000    0.99150   0.21590   0.81930   Biso      1.000     H          0.122787  
         H12       1.0000    0.80000   0.59010   0.40210   Biso      1.000     H          0.14984   
         H13       1.0000    0.85380   0.63750   0.31620   Biso      1.000     H          0.136689  
         H14       1.0000    0.38130   0.55820   0.37900   Biso      1.000     H          0.152031  
         H15       1.0000    0.50070   0.65150   0.41140   Biso      1.000     H          0.140211  
         H16       1.0000    0.50070   0.34850   0.91140   Biso      1.000     H          0.140206  
         H17       1.0000    0.49150   0.28410   0.31930   Biso      1.000     H          0.122794  
         H18       1.0000    0.57850   0.33950   0.40710   Biso      1.000     H          0.11156600000000001           
         H19       1.0000    0.75650   0.27120   0.32710   Biso      1.000     H          0.119182  
         H20       1.0000    0.68030   0.15260   0.31960   Biso      1.000     H          0.12485399999999999           
         H21       1.0000    0.43540   0.32780   0.50350   Biso      1.000     H          0.147147  
         H22       1.0000    0.28910   0.27520   0.44780   Biso      1.000     H          0.140471  
         H23       1.0000    0.96720   0.28080   0.50410   Biso      1.000     H          0.149079  
         H24       1.0000    0.82240   0.34960   0.46690   Biso      1.000     H          0.14851   
         H25       1.0000    0.30000   0.09010   0.40210   Biso      1.000     H          0.149839  
         H26       1.0000    0.35380   0.13750   0.31620   Biso      1.000     H          0.136689  
         H27       1.0000    0.88130   0.05820   0.37900   Biso      1.000     H          0.15203   
         H28       1.0000    0.99150   0.78410   0.31930   Biso      1.000     H          0.122794  
         H29       1.0000    0.93540   0.17220   0.00350   Biso      1.000     H          0.147146  
         H30       1.0000    0.38130   0.44180   0.87900   Biso      1.000     H          0.152023  
         H31       1.0000    0.35380   0.86250   0.81620   Biso      1.000     H          0.136683  
         H32       1.0000    0.78910   0.22480   0.94780   Biso      1.000     H          0.140466  
         H33       1.0000    0.96720   0.71920   0.00410   Biso      1.000     H          0.149077  
         H34       1.0000    0.88130   0.94180   0.87900   Biso      1.000     H          0.152022  
         H35       1.0000    0.00070   0.84850   0.91140   Biso      1.000     H          0.140205  
         H36       1.0000    0.00070   0.15150   0.41140   Biso      1.000     H          0.140211  
         H37       1.0000    0.57850   0.66050   0.90710   Biso      1.000     H          0.11156400000000001           
         H38       1.0000    0.80000   0.40990   0.90210   Biso      1.000     H          0.149837  
         H39       1.0000    0.82240   0.65040   0.96690   Biso      1.000     H          0.148509  
         H40       1.0000    0.49150   0.71590   0.81930   Biso      1.000     H          0.12278599999999999           
         H41       1.0000    0.85380   0.36250   0.81620   Biso      1.000     H          0.136683  
         H42       1.0000    0.32240   0.15040   0.96690   Biso      1.000     H          0.148509  
         H43       1.0000    0.75650   0.72880   0.82710   Biso      1.000     H          0.119176  
         H44       1.0000    0.68030   0.84740   0.81960   Biso      1.000     H          0.124848  
         H45       1.0000    0.43540   0.67220   0.00350   Biso      1.000     H          0.147145  
         H46       1.0000    0.28910   0.72480   0.94780   Biso      1.000     H          0.140466  
         H47       1.0000    0.46720   0.21920   0.00410   Biso      1.000     H          0.149077  
         H48       1.0000    0.30000   0.90990   0.90210   Biso      1.000     H          0.149837  
         N1        1.0000    0.97870   0.30680   0.93105   Biso      1.000     N          -0.041114           
         N2        1.0000    0.29640   0.31550   0.94373   Biso      1.000     N          -0.040881           
         N3        1.0000    0.79640   0.18450   0.44373   Biso      1.000     N          -0.04088  
         N4        1.0000    0.97870   0.69320   0.43105   Biso      1.000     N          -0.041114           
         N5        1.0000    0.47870   0.80680   0.93105   Biso      1.000     N          -0.041115           
         N6        1.0000    0.79640   0.81550   0.94373   Biso      1.000     N          -0.040882999999999996         
         N7        1.0000    0.29640   0.68450   0.44373   Biso      1.000     N          -0.040882999999999996         
         N8        1.0000    0.47870   0.19320   0.43105   Biso      1.000     N          -0.041111           
         Na1       1.0000    0.25706   0.96918   0.17119   Biso      1.000     Na          0.855453  
         Na2       1.0000    0.75706   0.53082   0.67119   Biso      1.000     Na          0.8554649999999999  
         Na3       1.0000    0.75706   0.46918   0.17119   Biso      1.000     Na          0.855455  
         Na4       1.0000    0.25706   0.03082   0.67119   Biso      1.000     Na          0.8554639999999999  
         O1        1.0000    0.60480   0.49630   0.02336   Biso      1.000     O          -0.599092           
         O2        1.0000    0.38110   0.14100   0.14528   Biso      1.000     O          -0.581969           
         O3        1.0000    0.42300   0.06370   0.80383   Biso      1.000     O          -0.593241           
         O4        1.0000    0.37960   0.47650   0.06390   Biso      1.000     O          -0.579928           
         O5        1.0000    0.92300   0.56370   0.80383   Biso      1.000     O          -0.59324  
         O6        1.0000    0.94130   0.39430   0.08625   Biso      1.000     O          -0.600727           
         O7        1.0000    0.21800   0.27930   0.11365   Biso      1.000     O          -0.554187           
         O8        1.0000    0.08910   0.52340   0.92495   Biso      1.000     O          -0.553819           
         O9        1.0000    0.76190   0.27560   0.10880   Biso      1.000     O          -0.580746           
         O10       1.0000    0.37960   0.52350   0.56390   Biso      1.000     O          -0.579919           
         O11       1.0000    0.26190   0.22440   0.60880   Biso      1.000     O          -0.5807359999999999           
         O12       1.0000    0.88110   0.35900   0.64528   Biso      1.000     O          -0.581957           
         O13       1.0000    0.92300   0.43630   0.30383   Biso      1.000     O          -0.593223           
         O14       1.0000    0.38110   0.85900   0.64528   Biso      1.000     O          -0.581955           
         O15       1.0000    0.60480   0.50370   0.52336   Biso      1.000     O          -0.59909  
         O16       1.0000    0.21800   0.72070   0.61365   Biso      1.000     O          -0.554176           
         O17       1.0000    0.94130   0.60570   0.58625   Biso      1.000     O          -0.60072  
         O18       1.0000    0.76190   0.72440   0.60880   Biso      1.000     O          -0.580734           
         O19       1.0000    0.26190   0.77560   0.10880   Biso      1.000     O          -0.5807479999999999           
         O20       1.0000    0.44130   0.89430   0.08625   Biso      1.000     O          -0.600727           
         O21       1.0000    0.10480   0.00370   0.52336   Biso      1.000     O          -0.599091           
         O22       1.0000    0.88110   0.64100   0.14528   Biso      1.000     O          -0.581971           
         O23       1.0000    0.58910   0.02340   0.92495   Biso      1.000     O          -0.55382  
         O24       1.0000    0.87960   0.97650   0.06390   Biso      1.000     O          -0.579929           
         O25       1.0000    0.08910   0.47660   0.42495   Biso      1.000     O          -0.55382  
         O26       1.0000    0.44130   0.10570   0.58625   Biso      1.000     O          -0.600718           
         O27       1.0000    0.71800   0.22070   0.61365   Biso      1.000     O          -0.5541739999999999           
         O28       1.0000    0.58910   0.97660   0.42495   Biso      1.000     O          -0.553818           
         O29       1.0000    0.87960   0.02350   0.56390   Biso      1.000     O          -0.579917           
         O30       1.0000    0.42300   0.93630   0.30383   Biso      1.000     O          -0.593224           
         O31       1.0000    0.71800   0.77930   0.11365   Biso      1.000     O          -0.554189           
         O32       1.0000    0.10480   0.99630   0.02336   Biso      1.000     O          -0.599094 