
##########################################################################
#               Crystallographic Information Format file
#               Produced by PyCifRW module
#
#  This is a CIF file.  CIF has been adopted by the International
#  Union of Crystallography as the standard for data archiving and
#  transmission.
#
#  For information on this file format, follow the CIF links at
#  http://www.iucr.org
##########################################################################

data_image0

_cell_length_a                          9.374
_cell_length_b                          21.316
_cell_length_c                          17.13
_cell_angle_alpha                       90
_cell_angle_beta                        118.334
_cell_angle_gamma                       90
_symmetry_space_group_name_H-M          'P 1'
_symmetry_int_tables_number             1
loop_
  _symmetry_equiv_pos_as_xyz
         'x, y, z' 
loop_
  _atom_site_label
  _atom_site_occupancy
  _atom_site_fract_x
  _atom_site_fract_y
  _atom_site_fract_z
  _atom_site_thermal_displace_type
  _atom_site_B_iso_or_equiv
  _atom_site_type_symbol
  _atom_site_charge
         C1        1.0000    0.16640   0.61110   0.46240   Biso      1.000     C          0.630114  
         C2        1.0000    0.92980   0.14800   0.75790   Biso      1.000     C          0.208922  
         C3        1.0000    0.99730   0.09330   0.73300   Biso      1.000     C          -0.234607           
         C4        1.0000    0.96000   0.08170   0.64270   Biso      1.000     C          -0.233109           
         C5        1.0000    0.00940   0.91190   0.57120   Biso      1.000     C          0.089442  
         C6        1.0000    0.93640   0.97090   0.57910   Biso      1.000     C          -0.208    
         C7        1.0000    0.02950   0.02010   0.62870   Biso      1.000     C          0.188581  
         C8        1.0000    0.19820   0.01010   0.67080   Biso      1.000     C          -0.203682           
         C9        1.0000    0.26080   0.95480   0.66050   Biso      1.000     C          0.079544  
         C10       1.0000    0.97480   0.22960   0.86000   Biso      1.000     C          0.095341  
         C11       1.0000    0.72430   0.21440   0.74750   Biso      1.000     C          0.106129  
         C12       1.0000    0.18720   0.43750   0.68420   Biso      1.000     C          0.606888  
         C13       1.0000    0.81280   0.56250   0.31580   Biso      1.000     C          0.606888  
         C14       1.0000    0.13740   0.64830   0.38060   Biso      1.000     C          -0.118647           
         C15       1.0000    0.03630   0.18080   0.83160   Biso      1.000     C          -0.196614           
         C16       1.0000    0.05140   0.60860   0.29700   Biso      1.000     C          -0.219696           
         C17       1.0000    0.60680   0.66910   0.19470   Biso      1.000     C          0.622279  
         C18       1.0000    0.79320   0.66900   0.24350   Biso      1.000     C          -0.131734           
         C19       1.0000    0.86860   0.70680   0.33010   Biso      1.000     C          -0.231366           
         C20       1.0000    0.04850   0.71060   0.37040   Biso      1.000     C          -0.121957           
         C21       1.0000    0.12710   0.74990   0.45530   Biso      1.000     C          0.595068  
         C22       1.0000    0.77310   0.33310   0.21380   Biso      1.000     C          -0.210411           
         C23       1.0000    0.03630   0.31920   0.33160   Biso      1.000     C          -0.196618           
         C24       1.0000    0.92980   0.35200   0.25790   Biso      1.000     C          0.208934  
         C25       1.0000    0.99730   0.40670   0.23300   Biso      1.000     C          -0.234608           
         C26       1.0000    0.96000   0.41830   0.14270   Biso      1.000     C          -0.233109           
         C27       1.0000    0.00940   0.58810   0.07120   Biso      1.000     C          0.089442  
         C28       1.0000    0.93640   0.52910   0.07910   Biso      1.000     C          -0.208    
         C29       1.0000    0.02950   0.47990   0.12870   Biso      1.000     C          0.188581  
         C30       1.0000    0.86580   0.60320   0.25900   Biso      1.000     C          -0.117942           
         C31       1.0000    0.19820   0.48990   0.17080   Biso      1.000     C          -0.203682           
         C32       1.0000    0.77310   0.16690   0.71380   Biso      1.000     C          -0.210386           
         C33       1.0000    0.04850   0.78940   0.87040   Biso      1.000     C          -0.121957           
         C34       1.0000    0.86260   0.35170   0.61940   Biso      1.000     C          -0.118647           
         C35       1.0000    0.94860   0.39140   0.70300   Biso      1.000     C          -0.219696           
         C36       1.0000    0.13420   0.39680   0.74100   Biso      1.000     C          -0.117942           
         C37       1.0000    0.39320   0.33090   0.80530   Biso      1.000     C          0.622279  
         C38       1.0000    0.20680   0.33100   0.75650   Biso      1.000     C          -0.131734           
         C39       1.0000    0.13140   0.29320   0.66990   Biso      1.000     C          -0.231366           
         C40       1.0000    0.95150   0.28940   0.62960   Biso      1.000     C          -0.121957           
         C41       1.0000    0.87290   0.25010   0.54470   Biso      1.000     C          0.595068  
         C42       1.0000    0.22690   0.66690   0.78620   Biso      1.000     C          -0.210411           
         C43       1.0000    0.96370   0.68080   0.66840   Biso      1.000     C          -0.196618           
         C44       1.0000    0.07020   0.64800   0.74210   Biso      1.000     C          0.208934  
         C45       1.0000    0.00270   0.59330   0.76700   Biso      1.000     C          -0.234608           
         C46       1.0000    0.04000   0.58170   0.85730   Biso      1.000     C          -0.233109           
         C47       1.0000    0.12710   0.75010   0.95530   Biso      1.000     C          0.595068  
         C48       1.0000    0.99060   0.41190   0.92880   Biso      1.000     C          0.089441  
         C49       1.0000    0.97050   0.52010   0.87130   Biso      1.000     C          0.188578  
         C50       1.0000    0.80180   0.51010   0.82920   Biso      1.000     C          -0.203682           
         C51       1.0000    0.73920   0.45480   0.83950   Biso      1.000     C          0.079544  
         C52       1.0000    0.02520   0.72960   0.64000   Biso      1.000     C          0.095342  
         C53       1.0000    0.27570   0.71440   0.75250   Biso      1.000     C          0.106147  
         C54       1.0000    0.16640   0.88890   0.96240   Biso      1.000     C          0.630114  
         C55       1.0000    0.81280   0.93750   0.81580   Biso      1.000     C          0.606888  
         C56       1.0000    0.13740   0.85170   0.88060   Biso      1.000     C          -0.118647           
         C57       1.0000    0.05140   0.89140   0.79700   Biso      1.000     C          -0.219696           
         C58       1.0000    0.86580   0.89680   0.75900   Biso      1.000     C          -0.117942           
         C59       1.0000    0.60680   0.83090   0.69470   Biso      1.000     C          0.622279  
         C60       1.0000    0.79320   0.83100   0.74350   Biso      1.000     C          -0.131734           
         C61       1.0000    0.86860   0.79320   0.83010   Biso      1.000     C          -0.231366           
         C62       1.0000    0.06360   0.47090   0.92090   Biso      1.000     C          -0.207996           
         C63       1.0000    0.26080   0.54520   0.16050   Biso      1.000     C          0.079544  
         C64       1.0000    0.83360   0.38890   0.53760   Biso      1.000     C          0.630114  
         C65       1.0000    0.80180   0.98990   0.32920   Biso      1.000     C          -0.203682           
         C66       1.0000    0.99060   0.08810   0.42880   Biso      1.000     C          0.089442  
         C67       1.0000    0.83360   0.11110   0.03760   Biso      1.000     C          0.630114  
         C68       1.0000    0.18720   0.06250   0.18420   Biso      1.000     C          0.606888  
         C69       1.0000    0.86260   0.14830   0.11940   Biso      1.000     C          -0.118647           
         C70       1.0000    0.04000   0.91830   0.35730   Biso      1.000     C          -0.233109           
         C71       1.0000    0.13140   0.20680   0.16990   Biso      1.000     C          -0.231366           
         C72       1.0000    0.94860   0.10860   0.20300   Biso      1.000     C          -0.219696           
         C73       1.0000    0.00270   0.90670   0.26700   Biso      1.000     C          -0.234607           
         C74       1.0000    0.13420   0.10320   0.24100   Biso      1.000     C          -0.117942           
         C75       1.0000    0.39320   0.16910   0.30530   Biso      1.000     C          0.622279  
         C76       1.0000    0.07020   0.85200   0.24210   Biso      1.000     C          0.208923  
         C77       1.0000    0.20680   0.16900   0.25650   Biso      1.000     C          -0.131734           
         C78       1.0000    0.96370   0.81920   0.16840   Biso      1.000     C          -0.196614           
         C79       1.0000    0.22690   0.83310   0.28620   Biso      1.000     C          -0.210403           
         C80       1.0000    0.87290   0.24990   0.04470   Biso      1.000     C          0.595068  
         C81       1.0000    0.72430   0.28560   0.24750   Biso      1.000     C          0.106147  
         C82       1.0000    0.06360   0.02910   0.42090   Biso      1.000     C          -0.208    
         C83       1.0000    0.95150   0.21060   0.12960   Biso      1.000     C          -0.121957           
         C84       1.0000    0.73920   0.04520   0.33950   Biso      1.000     C          0.079544  
         C85       1.0000    0.97050   0.97990   0.37130   Biso      1.000     C          0.188581  
         C86       1.0000    0.97480   0.27040   0.36000   Biso      1.000     C          0.095342  
         C87       1.0000    0.02520   0.77040   0.14000   Biso      1.000     C          0.095342  
         C88       1.0000    0.27570   0.78560   0.25250   Biso      1.000     C          0.106146  
         Cd1       1.0000    0.29308   0.50747   0.59029   Biso      1.000     Cd          0.950701  
         Cd2       1.0000    0.27763   0.81299   0.61119   Biso      1.000     Cd          0.801293  
         Cd3       1.0000    0.70692   0.00747   0.90971   Biso      1.000     Cd          0.950701  
         Cd4       1.0000    0.72237   0.31299   0.88881   Biso      1.000     Cd          0.801293  
         Cd5       1.0000    0.72237   0.18701   0.38881   Biso      1.000     Cd          0.801293  
         Cd6       1.0000    0.27763   0.68701   0.11119   Biso      1.000     Cd          0.801293  
         Cd7       1.0000    0.70692   0.49253   0.40971   Biso      1.000     Cd          0.950701  
         Cd8       1.0000    0.29308   0.99253   0.09029   Biso      1.000     Cd          0.950701  
         H1        1.0000    0.14590   0.17060   0.86140   Biso      1.000     H          0.139424  
         H2        1.0000    0.96540   0.05620   0.75350   Biso      1.000     H          0.127999  
         H3        1.0000    0.11440   0.09620   0.76730   Biso      1.000     H          0.106272  
         H4        1.0000    0.00170   0.11620   0.62250   Biso      1.000     H          0.127955  
         H5        1.0000    0.84320   0.08110   0.60620   Biso      1.000     H          0.119594  
         H6        1.0000    0.29950   0.85260   0.33880   Biso      1.000     H          0.136613  
         H7        1.0000    0.94480   0.87840   0.53880   Biso      1.000     H          0.113945  
         H8        1.0000    0.62720   0.05030   0.31080   Biso      1.000     H          0.096981  
         H9        1.0000    0.99830   0.61620   0.87750   Biso      1.000     H          0.127955  
         H10       1.0000    0.82420   0.97490   0.54980   Biso      1.000     H          0.133185  
         H11       1.0000    0.73220   0.54150   0.79390   Biso      1.000     H          0.126969  
         H12       1.0000    0.17580   0.02510   0.45020   Biso      1.000     H          0.133185  
         H13       1.0000    0.88560   0.90380   0.23270   Biso      1.000     H          0.106272  
         H14       1.0000    0.70050   0.14740   0.66120   Biso      1.000     H          0.136611  
         H15       1.0000    0.24430   0.84130   0.88700   Biso      1.000     H          0.109982  
         H16       1.0000    0.07360   0.87380   0.75170   Biso      1.000     H          0.10795   
         H17       1.0000    0.38450   0.72570   0.78260   Biso      1.000     H          0.097404  
         H18       1.0000    0.09730   0.93330   0.81000   Biso      1.000     H          0.108139  
         H19       1.0000    0.73220   0.95850   0.29390   Biso      1.000     H          0.126969  
         H20       1.0000    0.05520   0.12160   0.46120   Biso      1.000     H          0.113944  
         H21       1.0000    0.82330   0.91700   0.70080   Biso      1.000     H          0.101667  
         H22       1.0000    0.17580   0.47490   0.95020   Biso      1.000     H          0.133185  
         H23       1.0000    0.95420   0.75210   0.59000   Biso      1.000     H          0.093646  
         H24       1.0000    0.99830   0.88380   0.37750   Biso      1.000     H          0.127955  
         H25       1.0000    0.84010   0.81270   0.87200   Biso      1.000     H          0.116395  
         H26       1.0000    0.82380   0.75110   0.81820   Biso      1.000     H          0.114801  
         H27       1.0000    0.06780   0.76550   0.82740   Biso      1.000     H          0.083349  
         H28       1.0000    0.03460   0.94380   0.24650   Biso      1.000     H          0.127999  
         H29       1.0000    0.15680   0.58110   0.89380   Biso      1.000     H          0.119594  
         H30       1.0000    0.05520   0.37840   0.96120   Biso      1.000     H          0.113944  
         H31       1.0000    0.82660   0.81000   0.70390   Biso      1.000     H          0.093917  
         H32       1.0000    0.15680   0.91890   0.39380   Biso      1.000     H          0.119594  
         H33       1.0000    0.85410   0.82940   0.13860   Biso      1.000     H          0.139424  
         H34       1.0000    0.26780   0.04150   0.70610   Biso      1.000     H          0.126969  
         H35       1.0000    0.06780   0.73450   0.32740   Biso      1.000     H          0.083349  
         H36       1.0000    0.75570   0.15870   0.11300   Biso      1.000     H          0.109982  
         H37       1.0000    0.70050   0.35260   0.16120   Biso      1.000     H          0.136613  
         H38       1.0000    0.14590   0.32940   0.36140   Biso      1.000     H          0.139424  
         H39       1.0000    0.95420   0.74790   0.09000   Biso      1.000     H          0.093646  
         H40       1.0000    0.11440   0.40380   0.26730   Biso      1.000     H          0.106272  
         H41       1.0000    0.96540   0.44380   0.25350   Biso      1.000     H          0.127999  
         H42       1.0000    0.61550   0.27430   0.21740   Biso      1.000     H          0.097404  
         H43       1.0000    0.00170   0.38380   0.12250   Biso      1.000     H          0.127955  
         H44       1.0000    0.82380   0.74890   0.31820   Biso      1.000     H          0.114801  
         H45       1.0000    0.84320   0.41890   0.10620   Biso      1.000     H          0.119594  
         H46       1.0000    0.04580   0.24790   0.41000   Biso      1.000     H          0.093646  
         H47       1.0000    0.82420   0.52510   0.04980   Biso      1.000     H          0.133185  
         H48       1.0000    0.26780   0.45850   0.20610   Biso      1.000     H          0.126969  
         H49       1.0000    0.37280   0.55030   0.18920   Biso      1.000     H          0.096981  
         H50       1.0000    0.17670   0.41700   0.79920   Biso      1.000     H          0.101666  
         H51       1.0000    0.38450   0.77430   0.28260   Biso      1.000     H          0.097404  
         H52       1.0000    0.90270   0.43330   0.69000   Biso      1.000     H          0.108139  
         H53       1.0000    0.92640   0.37380   0.74830   Biso      1.000     H          0.10795   
         H54       1.0000    0.75570   0.34130   0.61300   Biso      1.000     H          0.109982  
         H55       1.0000    0.94480   0.62160   0.03880   Biso      1.000     H          0.113944  
         H56       1.0000    0.93220   0.23450   0.17260   Biso      1.000     H          0.083349  
         H57       1.0000    0.84010   0.68730   0.37200   Biso      1.000     H          0.116395  
         H58       1.0000    0.82660   0.69000   0.20390   Biso      1.000     H          0.093917  
         H59       1.0000    0.37280   0.94970   0.68920   Biso      1.000     H          0.096981  
         H60       1.0000    0.17620   0.24890   0.18180   Biso      1.000     H          0.1148    
         H61       1.0000    0.03460   0.55620   0.74650   Biso      1.000     H          0.127999  
         H62       1.0000    0.88560   0.59620   0.73270   Biso      1.000     H          0.106272  
         H63       1.0000    0.85410   0.67060   0.63860   Biso      1.000     H          0.139424  
         H64       1.0000    0.62720   0.44970   0.81080   Biso      1.000     H          0.096981  
         H65       1.0000    0.93220   0.26550   0.67260   Biso      1.000     H          0.083349  
         H66       1.0000    0.17620   0.25110   0.68180   Biso      1.000     H          0.1148    
         H67       1.0000    0.15990   0.31270   0.62800   Biso      1.000     H          0.116395  
         H68       1.0000    0.92640   0.12620   0.24830   Biso      1.000     H          0.10795   
         H69       1.0000    0.04580   0.25210   0.91000   Biso      1.000     H          0.093646  
         H70       1.0000    0.61550   0.22570   0.71740   Biso      1.000     H          0.097405  
         H71       1.0000    0.17340   0.31000   0.79610   Biso      1.000     H          0.093917  
         H72       1.0000    0.17340   0.19000   0.29610   Biso      1.000     H          0.093917  
         H73       1.0000    0.24430   0.65870   0.38700   Biso      1.000     H          0.109982  
         H74       1.0000    0.07360   0.62620   0.25170   Biso      1.000     H          0.10795   
         H75       1.0000    0.09730   0.56670   0.31000   Biso      1.000     H          0.108139  
         H76       1.0000    0.17670   0.08300   0.29920   Biso      1.000     H          0.101666  
         H77       1.0000    0.82330   0.58300   0.20080   Biso      1.000     H          0.101666  
         H78       1.0000    0.90270   0.06670   0.19000   Biso      1.000     H          0.108139  
         H79       1.0000    0.15990   0.18730   0.12800   Biso      1.000     H          0.116395  
         H80       1.0000    0.29950   0.64740   0.83880   Biso      1.000     H          0.136613  
         N1        1.0000    0.83180   0.09240   0.38910   Biso      1.000     N          -0.217612           
         N2        1.0000    0.18130   0.75410   0.18070   Biso      1.000     N          -0.231823           
         N3        1.0000    0.81870   0.24590   0.81930   Biso      1.000     N          -0.231821           
         N4        1.0000    0.16820   0.59240   0.11090   Biso      1.000     N          -0.217612           
         N5        1.0000    0.16820   0.90760   0.61090   Biso      1.000     N          -0.217612           
         N6        1.0000    0.81870   0.25410   0.31930   Biso      1.000     N          -0.231823           
         N7        1.0000    0.83180   0.40760   0.88910   Biso      1.000     N          -0.217612           
         N8        1.0000    0.18130   0.74590   0.68070   Biso      1.000     N          -0.231823           
         O1        1.0000    0.47020   0.13350   0.36770   Biso      1.000     O          -0.607568           
         O2        1.0000    0.08990   0.88190   0.00280   Biso      1.000     O          -0.54312  
         O3        1.0000    0.89130   0.98680   0.85220   Biso      1.000     O          -0.561978           
         O4        1.0000    0.68790   0.92230   0.82040   Biso      1.000     O          -0.51136  
         O5        1.0000    0.53560   0.78960   0.71580   Biso      1.000     O          -0.579703           
         O6        1.0000    0.72120   0.25160   0.49650   Biso      1.000     O          -0.567544           
         O7        1.0000    0.52980   0.63350   0.13230   Biso      1.000     O          -0.607569           
         O8        1.0000    0.53560   0.71040   0.21580   Biso      1.000     O          -0.579703           
         O9        1.0000    0.27880   0.74840   0.50350   Biso      1.000     O          -0.567544           
         O10       1.0000    0.03860   0.78510   0.47240   Biso      1.000     O          -0.590387           
         O11       1.0000    0.28320   0.57070   0.48680   Biso      1.000     O          -0.591653           
         O12       1.0000    0.08990   0.61810   0.50280   Biso      1.000     O          -0.54312  
         O13       1.0000    0.52980   0.86650   0.63230   Biso      1.000     O          -0.607568           
         O14       1.0000    0.46440   0.21040   0.28420   Biso      1.000     O          -0.579703           
         O15       1.0000    0.31210   0.07770   0.17960   Biso      1.000     O          -0.51136  
         O16       1.0000    0.03860   0.71490   0.97240   Biso      1.000     O          -0.590387           
         O17       1.0000    0.96140   0.21490   0.52760   Biso      1.000     O          -0.590387           
         O18       1.0000    0.71680   0.42930   0.51320   Biso      1.000     O          -0.591653           
         O19       1.0000    0.91010   0.38190   0.49720   Biso      1.000     O          -0.54312  
         O20       1.0000    0.10870   0.48680   0.64780   Biso      1.000     O          -0.561978           
         O21       1.0000    0.31210   0.42230   0.67960   Biso      1.000     O          -0.51136  
         O22       1.0000    0.46440   0.28960   0.78420   Biso      1.000     O          -0.579703           
         O23       1.0000    0.28320   0.92930   0.98680   Biso      1.000     O          -0.591653           
         O24       1.0000    0.72120   0.24840   0.99650   Biso      1.000     O          -0.567544           
         O25       1.0000    0.96140   0.28510   0.02760   Biso      1.000     O          -0.590387           
         O26       1.0000    0.68790   0.57770   0.32040   Biso      1.000     O          -0.51136  
         O27       1.0000    0.71680   0.07070   0.01320   Biso      1.000     O          -0.591653           
         O28       1.0000    0.27880   0.75160   0.00350   Biso      1.000     O          -0.567544           
         O29       1.0000    0.91010   0.11810   0.99720   Biso      1.000     O          -0.54312  
         O30       1.0000    0.10870   0.01320   0.14780   Biso      1.000     O          -0.561978           
         O31       1.0000    0.47020   0.36650   0.86770   Biso      1.000     O          -0.607569           
         O32       1.0000    0.89130   0.51320   0.35220   Biso      1.000     O          -0.561978 