
##########################################################################
#               Crystallographic Information Format file
#               Produced by PyCifRW module
#
#  This is a CIF file.  CIF has been adopted by the International
#  Union of Crystallography as the standard for data archiving and
#  transmission.
#
#  For information on this file format, follow the CIF links at
#  http://www.iucr.org
##########################################################################

data_image0

_cell_length_a                          6.82
_cell_length_b                          16.493
_cell_length_c                          22.22
_cell_angle_alpha                       90
_cell_angle_beta                        90
_cell_angle_gamma                       90
_symmetry_space_group_name_H-M          'P 1'
_symmetry_int_tables_number             1
loop_
  _symmetry_equiv_pos_as_xyz
         'x, y, z' 
loop_
  _atom_site_label
  _atom_site_occupancy
  _atom_site_fract_x
  _atom_site_fract_y
  _atom_site_fract_z
  _atom_site_thermal_displace_type
  _atom_site_B_iso_or_equiv
  _atom_site_type_symbol
  _atom_site_charge
         C1        1.0000    0.92330   0.25960   0.62990   Biso      1.000     C          -0.152167           
         C2        1.0000    0.79190   0.19630   0.30600   Biso      1.000     C          0.591259  
         C3        1.0000    0.70920   0.21530   0.24410   Biso      1.000     C          0.129017  
         C4        1.0000    0.57670   0.24040   0.12990   Biso      1.000     C          -0.152167           
         C5        1.0000    0.61220   0.16360   0.15240   Biso      1.000     C          0.113923  
         C6        1.0000    0.17630   0.20590   0.22480   Biso      1.000     C          -0.153065           
         C7        1.0000    0.08380   0.41090   0.11280   Biso      1.000     C          0.579376  
         C8        1.0000    0.05860   0.10840   0.14480   Biso      1.000     C          0.590762  
         C9        1.0000    0.10630   0.19290   0.16650   Biso      1.000     C          0.02779   
         C10       1.0000    0.29190   0.30370   0.30600   Biso      1.000     C          0.591259  
         C11       1.0000    0.20920   0.28470   0.24410   Biso      1.000     C          0.129019  
         C12       1.0000    0.07670   0.25960   0.12990   Biso      1.000     C          -0.152164           
         C13       1.0000    0.32370   0.29410   0.72480   Biso      1.000     C          -0.153065           
         C14       1.0000    0.41620   0.08910   0.61280   Biso      1.000     C          0.579376  
         C15       1.0000    0.44140   0.39160   0.64480   Biso      1.000     C          0.590762  
         C16       1.0000    0.39370   0.30710   0.66650   Biso      1.000     C          0.027789  
         C17       1.0000    0.20810   0.19630   0.80600   Biso      1.000     C          0.591259  
         C18       1.0000    0.29080   0.21530   0.74410   Biso      1.000     C          0.129019  
         C19       1.0000    0.42330   0.24040   0.62990   Biso      1.000     C          -0.152164           
         C20       1.0000    0.38780   0.16360   0.65240   Biso      1.000     C          0.113923  
         C21       1.0000    0.17630   0.79410   0.27520   Biso      1.000     C          -0.153065           
         C22       1.0000    0.08380   0.58910   0.38720   Biso      1.000     C          0.579376  
         C23       1.0000    0.05860   0.89160   0.35520   Biso      1.000     C          0.590762  
         C24       1.0000    0.10630   0.80710   0.33350   Biso      1.000     C          0.027789  
         C25       1.0000    0.60630   0.30710   0.16650   Biso      1.000     C          0.02779   
         C26       1.0000    0.29190   0.69630   0.19400   Biso      1.000     C          0.591259  
         C27       1.0000    0.55860   0.39160   0.14480   Biso      1.000     C          0.590763  
         C28       1.0000    0.67630   0.29410   0.22480   Biso      1.000     C          -0.153062           
         C29       1.0000    0.82370   0.79410   0.77520   Biso      1.000     C          -0.153065           
         C30       1.0000    0.91620   0.58910   0.88720   Biso      1.000     C          0.579376  
         C31       1.0000    0.94140   0.89160   0.85520   Biso      1.000     C          0.590762  
         C32       1.0000    0.89370   0.80710   0.83350   Biso      1.000     C          0.027789  
         C33       1.0000    0.70810   0.69630   0.69400   Biso      1.000     C          0.591259  
         C34       1.0000    0.79080   0.71530   0.75590   Biso      1.000     C          0.129019  
         C35       1.0000    0.92330   0.74040   0.87010   Biso      1.000     C          -0.152164           
         C36       1.0000    0.88780   0.66360   0.84760   Biso      1.000     C          0.113923  
         C37       1.0000    0.67630   0.70590   0.27520   Biso      1.000     C          -0.153065           
         C38       1.0000    0.58380   0.91090   0.38720   Biso      1.000     C          0.579376  
         C39       1.0000    0.55860   0.60840   0.35520   Biso      1.000     C          0.590762  
         C40       1.0000    0.60630   0.69290   0.33350   Biso      1.000     C          0.027789  
         C41       1.0000    0.79190   0.80370   0.19400   Biso      1.000     C          0.591259  
         C42       1.0000    0.70920   0.78470   0.25590   Biso      1.000     C          0.129019  
         C43       1.0000    0.57670   0.75960   0.37010   Biso      1.000     C          -0.152164           
         C44       1.0000    0.61220   0.83640   0.34760   Biso      1.000     C          0.113924  
         C45       1.0000    0.82370   0.20590   0.72480   Biso      1.000     C          -0.153065           
         C46       1.0000    0.91620   0.41090   0.61280   Biso      1.000     C          0.579376  
         C47       1.0000    0.94140   0.10840   0.64480   Biso      1.000     C          0.590762  
         C48       1.0000    0.89370   0.19290   0.66650   Biso      1.000     C          0.027791  
         C49       1.0000    0.70810   0.30370   0.80600   Biso      1.000     C          0.591259  
         C50       1.0000    0.79080   0.28470   0.74410   Biso      1.000     C          0.129019  
         C51       1.0000    0.88780   0.33640   0.65240   Biso      1.000     C          0.113924  
         C52       1.0000    0.58380   0.08910   0.11280   Biso      1.000     C          0.579376  
         C53       1.0000    0.20920   0.71530   0.25590   Biso      1.000     C          0.129019  
         C54       1.0000    0.11220   0.33640   0.15240   Biso      1.000     C          0.113924  
         C55       1.0000    0.11220   0.66360   0.34760   Biso      1.000     C          0.113922  
         C56       1.0000    0.32370   0.70590   0.77520   Biso      1.000     C          -0.153065           
         C57       1.0000    0.41620   0.91090   0.88720   Biso      1.000     C          0.579376  
         C58       1.0000    0.44140   0.60840   0.85520   Biso      1.000     C          0.590762  
         C59       1.0000    0.39370   0.69290   0.83350   Biso      1.000     C          0.027789  
         C60       1.0000    0.20810   0.80370   0.69400   Biso      1.000     C          0.591259  
         C61       1.0000    0.29080   0.78470   0.75590   Biso      1.000     C          0.129019  
         C62       1.0000    0.42330   0.75960   0.87010   Biso      1.000     C          -0.152164           
         C63       1.0000    0.38780   0.83640   0.84760   Biso      1.000     C          0.113924  
         C64       1.0000    0.07670   0.74040   0.37010   Biso      1.000     C          -0.152162           
         H1        1.0000    0.20050   0.16230   0.25030   Biso      1.000     H          0.141016  
         H2        1.0000    0.03340   0.25290   0.09060   Biso      1.000     H          0.135142  
         H3        1.0000    0.30500   0.03300   0.50760   Biso      1.000     H          0.464295  
         H4        1.0000    0.29500   0.96900   0.47400   Biso      1.000     H          0.47083   
         H5        1.0000    0.29950   0.33770   0.75030   Biso      1.000     H          0.141016  
         H6        1.0000    0.46660   0.24710   0.59060   Biso      1.000     H          0.135142  
         H7        1.0000    0.30500   0.96700   0.99240   Biso      1.000     H          0.464295  
         H8        1.0000    0.20500   0.46900   0.52600   Biso      1.000     H          0.47083   
         H9        1.0000    0.20050   0.83770   0.24970   Biso      1.000     H          0.141016  
         H10       1.0000    0.03340   0.74710   0.40940   Biso      1.000     H          0.135141  
         H11       1.0000    0.20500   0.53100   0.97400   Biso      1.000     H          0.47083   
         H12       1.0000    0.29500   0.03100   0.02600   Biso      1.000     H          0.47083   
         H13       1.0000    0.46660   0.75290   0.90940   Biso      1.000     H          0.135141  
         H14       1.0000    0.19500   0.53300   0.49240   Biso      1.000     H          0.464295  
         H15       1.0000    0.19500   0.46700   0.00760   Biso      1.000     H          0.464295  
         H16       1.0000    0.29950   0.66230   0.74970   Biso      1.000     H          0.141016  
         H17       1.0000    0.70050   0.33770   0.25030   Biso      1.000     H          0.141016  
         H18       1.0000    0.80500   0.53300   0.99240   Biso      1.000     H          0.464295  
         H19       1.0000    0.79500   0.46900   0.02600   Biso      1.000     H          0.47083   
         H20       1.0000    0.79950   0.83770   0.74970   Biso      1.000     H          0.141016  
         H21       1.0000    0.96660   0.74710   0.90940   Biso      1.000     H          0.135142  
         H22       1.0000    0.69500   0.96700   0.49240   Biso      1.000     H          0.464295  
         H23       1.0000    0.70500   0.03100   0.52600   Biso      1.000     H          0.47083   
         H24       1.0000    0.70050   0.66230   0.24970   Biso      1.000     H          0.141016  
         H25       1.0000    0.53340   0.24710   0.09060   Biso      1.000     H          0.135142  
         H26       1.0000    0.80500   0.46700   0.50760   Biso      1.000     H          0.464295  
         H27       1.0000    0.79500   0.53100   0.47400   Biso      1.000     H          0.47083   
         H28       1.0000    0.79950   0.16230   0.75030   Biso      1.000     H          0.141016  
         H29       1.0000    0.96660   0.25290   0.59060   Biso      1.000     H          0.135142  
         H30       1.0000    0.69500   0.03300   0.00760   Biso      1.000     H          0.464295  
         H31       1.0000    0.70500   0.96900   0.97400   Biso      1.000     H          0.47083   
         H32       1.0000    0.53340   0.75290   0.40940   Biso      1.000     H          0.135142  
         N1        1.0000    0.17620   0.65070   0.29123   Biso      1.000     N          -0.344283           
         N2        1.0000    0.82380   0.65070   0.79123   Biso      1.000     N          -0.344283           
         N3        1.0000    0.82380   0.34930   0.70877   Biso      1.000     N          -0.344283           
         N4        1.0000    0.67620   0.15070   0.20877   Biso      1.000     N          -0.344283           
         N5        1.0000    0.17620   0.34930   0.20877   Biso      1.000     N          -0.344283           
         N6        1.0000    0.32380   0.15070   0.70877   Biso      1.000     N          -0.344283           
         N7        1.0000    0.67620   0.84930   0.29123   Biso      1.000     N          -0.344283           
         N8        1.0000    0.32380   0.84930   0.79123   Biso      1.000     N          -0.344283           
         O1        1.0000    0.66790   0.62290   0.68346   Biso      1.000     O          -0.735095           
         O2        1.0000    0.01850   0.10000   0.08977   Biso      1.000     O          -0.635404           
         O3        1.0000    0.27130   0.49870   0.99277   Biso      1.000     O          -0.967093           
         O4        1.0000    0.05580   0.05080   0.18172   Biso      1.000     O          -0.647489           
         O5        1.0000    0.01740   0.40040   0.06154   Biso      1.000     O          -0.586397           
         O6        1.0000    0.31770   0.24790   0.34167   Biso      1.000     O          -0.586509           
         O7        1.0000    0.63650   0.02160   0.13488   Biso      1.000     O          -0.699532           
         O8        1.0000    0.83210   0.12290   0.31654   Biso      1.000     O          -0.735095           
         O9        1.0000    0.51850   0.40000   0.08977   Biso      1.000     O          -0.635404           
         O10       1.0000    0.77130   0.00130   0.99277   Biso      1.000     O          -0.967093           
         O11       1.0000    0.55580   0.44920   0.18172   Biso      1.000     O          -0.647489           
         O12       1.0000    0.51740   0.09960   0.06154   Biso      1.000     O          -0.586397           
         O13       1.0000    0.81770   0.25210   0.34167   Biso      1.000     O          -0.586509           
         O14       1.0000    0.86350   0.47840   0.63488   Biso      1.000     O          -0.699532           
         O15       1.0000    0.66790   0.37710   0.81654   Biso      1.000     O          -0.735096           
         O16       1.0000    0.86350   0.52160   0.86512   Biso      1.000     O          -0.699532           
         O17       1.0000    0.98150   0.10000   0.58977   Biso      1.000     O          -0.635404           
         O18       1.0000    0.94420   0.05080   0.68172   Biso      1.000     O          -0.647489           
         O19       1.0000    0.98260   0.40040   0.56154   Biso      1.000     O          -0.586397           
         O20       1.0000    0.68230   0.24790   0.84167   Biso      1.000     O          -0.586509           
         O21       1.0000    0.63650   0.97840   0.36512   Biso      1.000     O          -0.699532           
         O22       1.0000    0.33210   0.37710   0.31654   Biso      1.000     O          -0.735096           
         O23       1.0000    0.83210   0.87710   0.18346   Biso      1.000     O          -0.735095           
         O24       1.0000    0.51850   0.60000   0.41023   Biso      1.000     O          -0.635404           
         O25       1.0000    0.77130   0.99870   0.50723   Biso      1.000     O          -0.967093           
         O26       1.0000    0.55580   0.55080   0.31828   Biso      1.000     O          -0.647489           
         O27       1.0000    0.51740   0.90040   0.43846   Biso      1.000     O          -0.586397           
         O28       1.0000    0.81770   0.74790   0.15833   Biso      1.000     O          -0.586509           
         O29       1.0000    0.94420   0.94920   0.81828   Biso      1.000     O          -0.647489           
         O30       1.0000    0.72870   0.50130   0.00723   Biso      1.000     O          -0.967093           
         O31       1.0000    0.98150   0.90000   0.91023   Biso      1.000     O          -0.635404           
         O32       1.0000    0.72870   0.49870   0.49277   Biso      1.000     O          -0.967093           
         O33       1.0000    0.13650   0.47840   0.13488   Biso      1.000     O          -0.699532           
         O34       1.0000    0.68230   0.75210   0.65833   Biso      1.000     O          -0.586509           
         O35       1.0000    0.48260   0.09960   0.56154   Biso      1.000     O          -0.586397           
         O36       1.0000    0.98260   0.59960   0.93846   Biso      1.000     O          -0.586397           
         O37       1.0000    0.36350   0.97840   0.86512   Biso      1.000     O          -0.699532           
         O38       1.0000    0.16790   0.87710   0.68346   Biso      1.000     O          -0.735095           
         O39       1.0000    0.48150   0.60000   0.91023   Biso      1.000     O          -0.635404           
         O40       1.0000    0.18230   0.25210   0.84167   Biso      1.000     O          -0.586509           
         O41       1.0000    0.44420   0.55080   0.81828   Biso      1.000     O          -0.647489           
         O42       1.0000    0.48260   0.90040   0.93846   Biso      1.000     O          -0.586397           
         O43       1.0000    0.18230   0.74790   0.65833   Biso      1.000     O          -0.586509           
         O44       1.0000    0.13650   0.52160   0.36512   Biso      1.000     O          -0.699532           
         O45       1.0000    0.33210   0.62290   0.18346   Biso      1.000     O          -0.735096           
         O46       1.0000    0.22870   0.99870   0.00723   Biso      1.000     O          -0.967093           
         O47       1.0000    0.27130   0.50130   0.50723   Biso      1.000     O          -0.967093           
         O48       1.0000    0.05580   0.94920   0.31828   Biso      1.000     O          -0.647489           
         O49       1.0000    0.01740   0.59960   0.43846   Biso      1.000     O          -0.586397           
         O50       1.0000    0.31770   0.75210   0.15833   Biso      1.000     O          -0.586509           
         O51       1.0000    0.36350   0.02160   0.63488   Biso      1.000     O          -0.699532           
         O52       1.0000    0.16790   0.12290   0.81654   Biso      1.000     O          -0.735095           
         O53       1.0000    0.48150   0.40000   0.58977   Biso      1.000     O          -0.635404           
         O54       1.0000    0.22870   0.00130   0.49277   Biso      1.000     O          -0.967093           
         O55       1.0000    0.44420   0.44920   0.68172   Biso      1.000     O          -0.647489           
         O56       1.0000    0.01850   0.90000   0.41023   Biso      1.000     O          -0.635404           
         Sr1       1.0000    0.45597   0.44203   0.41306   Biso      1.000     Sr          1.560283  
         Sr2       1.0000    0.04403   0.94203   0.58694   Biso      1.000     Sr          1.560283  
         Sr3       1.0000    0.45597   0.55797   0.08694   Biso      1.000     Sr          1.560283  
         Sr4       1.0000    0.95597   0.94203   0.08694   Biso      1.000     Sr          1.560283  
         Sr5       1.0000    0.54403   0.55797   0.58694   Biso      1.000     Sr          1.560283  
         Sr6       1.0000    0.75833   0.00000   0.25000   Biso      1.000     Sr          1.406678  
         Sr7       1.0000    0.54403   0.44203   0.91306   Biso      1.000     Sr          1.560283  
         Sr8       1.0000    0.24167   0.00000   0.75000   Biso      1.000     Sr          1.406678  
         Sr9       1.0000    0.25833   0.50000   0.25000   Biso      1.000     Sr          1.406678  
         Sr10      1.0000    0.74167   0.50000   0.75000   Biso      1.000     Sr          1.406678  
         Sr11      1.0000    0.95597   0.05797   0.41306   Biso      1.000     Sr          1.560283  
         Sr12      1.0000    0.04403   0.05797   0.91306   Biso      1.000     Sr          1.560283 