
##########################################################################
#               Crystallographic Information Format file
#               Produced by PyCifRW module
#
#  This is a CIF file.  CIF has been adopted by the International
#  Union of Crystallography as the standard for data archiving and
#  transmission.
#
#  For information on this file format, follow the CIF links at
#  http://www.iucr.org
##########################################################################

data_image0

_cell_length_a                          10.2354
_cell_length_b                          15.455
_cell_length_c                          17.536
_cell_angle_alpha                       90
_cell_angle_beta                        98.718
_cell_angle_gamma                       90
_symmetry_space_group_name_H-M          'P 1'
_symmetry_int_tables_number             1
loop_
  _symmetry_equiv_pos_as_xyz
         'x, y, z' 
loop_
  _atom_site_label
  _atom_site_occupancy
  _atom_site_fract_x
  _atom_site_fract_y
  _atom_site_fract_z
  _atom_site_thermal_displace_type
  _atom_site_B_iso_or_equiv
  _atom_site_type_symbol
  _atom_site_charge
         Ba1       1.0000    0.18060   0.03334   0.45055   Biso      1.000     Ba          1.471147  
         Ba2       1.0000    0.50000   0.71819   0.25000   Biso      1.000     Ba          1.496799  
         Ba3       1.0000    0.00000   0.21819   0.25000   Biso      1.000     Ba          1.496803  
         Ba4       1.0000    0.68060   0.46666   0.95055   Biso      1.000     Ba          1.471147  
         Ba5       1.0000    0.18060   0.96666   0.95055   Biso      1.000     Ba          1.471148  
         Ba6       1.0000    0.31940   0.46666   0.54945   Biso      1.000     Ba          1.471147  
         Ba7       1.0000    0.00000   0.78181   0.75000   Biso      1.000     Ba          1.4968    
         Ba8       1.0000    0.81940   0.96666   0.54945   Biso      1.000     Ba          1.471148  
         Ba9       1.0000    0.31940   0.53334   0.04945   Biso      1.000     Ba          1.471148  
         Ba10      1.0000    0.81940   0.03334   0.04945   Biso      1.000     Ba          1.4711459999999998  
         Ba11      1.0000    0.68060   0.53334   0.45055   Biso      1.000     Ba          1.471148  
         Ba12      1.0000    0.50000   0.28181   0.75000   Biso      1.000     Ba          1.496797  
         C1        1.0000    0.99400   0.50589   0.08892   Biso      1.000     C          0.5194310000000001  
         C2        1.0000    0.61910   0.52742   0.17277   Biso      1.000     C          0.504668  
         C3        1.0000    0.73500   0.54527   0.23893   Biso      1.000     C          0.47831899999999994           
         C4        1.0000    0.71890   0.76379   0.45881   Biso      1.000     C          0.531195  
         C5        1.0000    0.28110   0.23621   0.54119   Biso      1.000     C          0.531193  
         C6        1.0000    0.21890   0.73621   0.95881   Biso      1.000     C          0.531193  
         C7        1.0000    0.23500   0.95473   0.73893   Biso      1.000     C          0.47831999999999997           
         C8        1.0000    0.11910   0.97258   0.67277   Biso      1.000     C          0.504671  
         C9        1.0000    0.00600   0.49411   0.91108   Biso      1.000     C          0.519432  
         C10       1.0000    0.93480   0.57825   0.87877   Biso      1.000     C          0.529504  
         C11       1.0000    0.06520   0.42175   0.12123   Biso      1.000     C          0.529504  
         C12       1.0000    0.88090   0.02742   0.32723   Biso      1.000     C          0.50467   
         C13       1.0000    0.76500   0.04527   0.26107   Biso      1.000     C          0.478321  
         C14       1.0000    0.78110   0.26379   0.04119   Biso      1.000     C          0.531191  
         C15       1.0000    0.56520   0.07825   0.62123   Biso      1.000     C          0.529503  
         C16       1.0000    0.49400   0.99411   0.58892   Biso      1.000     C          0.519433  
         C17       1.0000    0.38090   0.47258   0.82723   Biso      1.000     C          0.504668  
         C18       1.0000    0.28110   0.76379   0.04119   Biso      1.000     C          0.531195  
         C19       1.0000    0.26500   0.54527   0.26107   Biso      1.000     C          0.47831999999999997           
         C20       1.0000    0.38090   0.52742   0.32723   Biso      1.000     C          0.504671  
         C21       1.0000    0.49400   0.00589   0.08892   Biso      1.000     C          0.519432  
         C22       1.0000    0.56520   0.92175   0.12123   Biso      1.000     C          0.529505  
         C23       1.0000    0.50600   0.00589   0.41108   Biso      1.000     C          0.519433  
         C24       1.0000    0.43480   0.92175   0.37877   Biso      1.000     C          0.529505  
         C25       1.0000    0.26500   0.45473   0.76107   Biso      1.000     C          0.47831999999999997           
         C26       1.0000    0.11910   0.02742   0.17277   Biso      1.000     C          0.504668  
         C27       1.0000    0.73500   0.45473   0.73893   Biso      1.000     C          0.47831999999999997           
         C28       1.0000    0.71890   0.23621   0.95881   Biso      1.000     C          0.5311939999999999  
         C29       1.0000    0.43480   0.07825   0.87877   Biso      1.000     C          0.529503  
         C30       1.0000    0.21890   0.26379   0.45881   Biso      1.000     C          0.531195  
         C31       1.0000    0.23500   0.04527   0.23893   Biso      1.000     C          0.47831899999999994           
         C32       1.0000    0.76500   0.95473   0.76107   Biso      1.000     C          0.478318  
         C33       1.0000    0.88090   0.97258   0.82723   Biso      1.000     C          0.5046689999999999  
         C34       1.0000    0.61910   0.47258   0.67277   Biso      1.000     C          0.504671  
         C35       1.0000    0.50600   0.99411   0.91108   Biso      1.000     C          0.519433  
         C36       1.0000    0.93480   0.42175   0.37877   Biso      1.000     C          0.529503  
         C37       1.0000    0.99400   0.49411   0.58892   Biso      1.000     C          0.519433  
         C38       1.0000    0.06520   0.57825   0.62123   Biso      1.000     C          0.529504  
         C39       1.0000    0.78110   0.73621   0.54119   Biso      1.000     C          0.531197  
         C40       1.0000    0.00600   0.50589   0.41108   Biso      1.000     C          0.519433  
         H1        1.0000    0.10500   0.84800   0.53100   Biso      1.000     H          0.46796899999999997           
         H2        1.0000    0.04500   0.84500   0.46800   Biso      1.000     H          0.490754  
         H3        1.0000    0.39500   0.65200   0.46900   Biso      1.000     H          0.46796899999999997           
         H4        1.0000    0.45500   0.65500   0.53200   Biso      1.000     H          0.490755  
         H5        1.0000    0.39500   0.34800   0.96900   Biso      1.000     H          0.467971  
         H6        1.0000    0.45500   0.34500   0.03200   Biso      1.000     H          0.49075799999999997           
         H7        1.0000    0.54500   0.34500   0.46800   Biso      1.000     H          0.49075699999999994           
         H8        1.0000    0.95500   0.84500   0.03200   Biso      1.000     H          0.490759  
         H9        1.0000    0.89500   0.84800   0.96900   Biso      1.000     H          0.46797   
         H10       1.0000    0.60500   0.34800   0.53100   Biso      1.000     H          0.46796899999999997           
         H11       1.0000    0.04500   0.15500   0.96800   Biso      1.000     H          0.490759  
         H12       1.0000    0.10500   0.15200   0.03100   Biso      1.000     H          0.46796899999999997           
         H13       1.0000    0.60500   0.65200   0.03100   Biso      1.000     H          0.467971  
         H14       1.0000    0.54500   0.65500   0.96800   Biso      1.000     H          0.49075799999999997           
         H15       1.0000    0.95500   0.15500   0.53200   Biso      1.000     H          0.49075699999999994           
         H16       1.0000    0.89500   0.15200   0.46900   Biso      1.000     H          0.46796899999999997           
         O1        1.0000    0.56086   0.93567   0.56581   Biso      1.000     O          -0.546988           
         O2        1.0000    0.47937   0.42633   0.83539   Biso      1.000     O          -0.569891           
         O3        1.0000    0.26299   0.15651   0.55564   Biso      1.000     O          -0.643232           
         O4        1.0000    0.16696   0.50560   0.76072   Biso      1.000     O          -0.528668           
         O5        1.0000    0.43890   0.61833   0.50080   Biso      1.000     O          -0.898791           
         O6        1.0000    0.34103   0.28984   0.58540   Biso      1.000     O          -0.548194           
         O7        1.0000    0.27157   0.17913   0.71123   Biso      1.000     O          -0.723512           
         O8        1.0000    0.36668   0.53775   0.87051   Biso      1.000     O          -0.599087           
         O9        1.0000    0.27650   0.39650   0.71494   Biso      1.000     O          -0.505089           
         O10       1.0000    0.22843   0.32087   0.28877   Biso      1.000     O          -0.7235199999999999           
         O11       1.0000    0.00362   0.62717   0.84102   Biso      1.000     O          -0.643917           
         O12       1.0000    0.00362   0.37283   0.34102   Biso      1.000     O          -0.6439199999999999           
         O13       1.0000    0.56110   0.61833   0.99920   Biso      1.000     O          -0.8987940000000001           
         O14       1.0000    0.72843   0.17913   0.78877   Biso      1.000     O          -0.7235050000000001           
         O15       1.0000    0.65897   0.28984   0.91460   Biso      1.000     O          -0.548197           
         O16       1.0000    0.73701   0.15651   0.94436   Biso      1.000     O          -0.643231           
         O17       1.0000    0.83304   0.50560   0.73928   Biso      1.000     O          -0.528667           
         O18       1.0000    0.72350   0.39650   0.78506   Biso      1.000     O          -0.5050859999999999           
         O19       1.0000    0.63332   0.53775   0.62949   Biso      1.000     O          -0.599089           
         O20       1.0000    0.52063   0.42633   0.66461   Biso      1.000     O          -0.569891           
         O21       1.0000    0.43914   0.93567   0.93419   Biso      1.000     O          -0.5469890000000001           
         O22       1.0000    0.62968   0.99498   0.91216   Biso      1.000     O          -0.651593           
         O23       1.0000    0.32274   0.09480   0.89242   Biso      1.000     O          -0.560858           
         O24       1.0000    0.12968   0.50502   0.41216   Biso      1.000     O          -0.651593           
         O25       1.0000    0.50362   0.12717   0.84102   Biso      1.000     O          -0.643917           
         O26       1.0000    0.06110   0.11833   0.99920   Biso      1.000     O          -0.8987940000000001           
         O27       1.0000    0.37032   0.99498   0.58784   Biso      1.000     O          -0.651591           
         O28       1.0000    0.22843   0.67913   0.78877   Biso      1.000     O          -0.723513           
         O29       1.0000    0.15897   0.78984   0.91460   Biso      1.000     O          -0.548197           
         O30       1.0000    0.23701   0.65651   0.94436   Biso      1.000     O          -0.6432329999999999           
         O31       1.0000    0.33304   0.00560   0.73928   Biso      1.000     O          -0.528666           
         O32       1.0000    0.22350   0.89650   0.78506   Biso      1.000     O          -0.5050859999999999           
         O33       1.0000    0.13332   0.03775   0.62949   Biso      1.000     O          -0.5990880000000001           
         O34       1.0000    0.02063   0.92633   0.66461   Biso      1.000     O          -0.569892           
         O35       1.0000    0.93914   0.43567   0.93419   Biso      1.000     O          -0.546988           
         O36       1.0000    0.12968   0.49498   0.91216   Biso      1.000     O          -0.6515920000000001           
         O37       1.0000    0.82274   0.59480   0.89242   Biso      1.000     O          -0.5608569999999999           
         O38       1.0000    0.82274   0.40520   0.39242   Biso      1.000     O          -0.560858           
         O39       1.0000    0.67726   0.09480   0.60758   Biso      1.000     O          -0.5608569999999999           
         O40       1.0000    0.86668   0.03775   0.87051   Biso      1.000     O          -0.599086           
         O41       1.0000    0.93890   0.88167   0.00080   Biso      1.000     O          -0.8987940000000001           
         O42       1.0000    0.22350   0.10350   0.28506   Biso      1.000     O          -0.505088           
         O43       1.0000    0.49638   0.12717   0.65898   Biso      1.000     O          -0.643917           
         O44       1.0000    0.77157   0.32087   0.21123   Biso      1.000     O          -0.723525           
         O45       1.0000    0.84103   0.21016   0.08540   Biso      1.000     O          -0.548197           
         O46       1.0000    0.76299   0.34349   0.05564   Biso      1.000     O          -0.643234           
         O47       1.0000    0.66696   0.99440   0.26072   Biso      1.000     O          -0.528666           
         O48       1.0000    0.77650   0.10350   0.21494   Biso      1.000     O          -0.5050859999999999           
         O49       1.0000    0.86668   0.96225   0.37051   Biso      1.000     O          -0.599087           
         O50       1.0000    0.97937   0.07367   0.33539   Biso      1.000     O          -0.569891           
         O51       1.0000    0.06086   0.56433   0.06581   Biso      1.000     O          -0.546988           
         O52       1.0000    0.23701   0.34349   0.44436   Biso      1.000     O          -0.6432329999999999           
         O53       1.0000    0.87032   0.50502   0.08784   Biso      1.000     O          -0.6515920000000001           
         O54       1.0000    0.17726   0.40520   0.10758   Biso      1.000     O          -0.560858           
         O55       1.0000    0.99638   0.37283   0.15898   Biso      1.000     O          -0.6439199999999999           
         O56       1.0000    0.33304   0.99440   0.23928   Biso      1.000     O          -0.5286649999999999           
         O57       1.0000    0.56110   0.38167   0.49920   Biso      1.000     O          -0.898792           
         O58       1.0000    0.72843   0.82087   0.28877   Biso      1.000     O          -0.723499           
         O59       1.0000    0.65897   0.71016   0.41460   Biso      1.000     O          -0.548195           
         O60       1.0000    0.73701   0.84349   0.44436   Biso      1.000     O          -0.643231           
         O61       1.0000    0.83304   0.49440   0.23928   Biso      1.000     O          -0.528669           
         O62       1.0000    0.72350   0.60350   0.28506   Biso      1.000     O          -0.505089           
         O63       1.0000    0.63332   0.46225   0.12949   Biso      1.000     O          -0.5990880000000001           
         O64       1.0000    0.52063   0.57367   0.16461   Biso      1.000     O          -0.569893           
         O65       1.0000    0.43914   0.06433   0.43419   Biso      1.000     O          -0.5469890000000001           
         O66       1.0000    0.62968   0.00502   0.41216   Biso      1.000     O          -0.651593           
         O67       1.0000    0.06110   0.88167   0.49920   Biso      1.000     O          -0.898791           
         O68       1.0000    0.32274   0.90520   0.39242   Biso      1.000     O          -0.560858           
         O69       1.0000    0.49638   0.87283   0.15898   Biso      1.000     O          -0.6439159999999999           
         O70       1.0000    0.37032   0.00502   0.08784   Biso      1.000     O          -0.6515920000000001           
         O71       1.0000    0.93914   0.56433   0.43419   Biso      1.000     O          -0.546988           
         O72       1.0000    0.93890   0.11833   0.50080   Biso      1.000     O          -0.898792           
         O73       1.0000    0.77157   0.67913   0.71123   Biso      1.000     O          -0.723508           
         O74       1.0000    0.84103   0.78984   0.58540   Biso      1.000     O          -0.548195           
         O75       1.0000    0.76299   0.65651   0.55564   Biso      1.000     O          -0.6432329999999999           
         O76       1.0000    0.66696   0.00560   0.76072   Biso      1.000     O          -0.528666           
         O77       1.0000    0.77650   0.89650   0.71494   Biso      1.000     O          -0.505088           
         O78       1.0000    0.15897   0.21016   0.41460   Biso      1.000     O          -0.548194           
         O79       1.0000    0.97937   0.92633   0.83539   Biso      1.000     O          -0.569893           
         O80       1.0000    0.06086   0.43567   0.56581   Biso      1.000     O          -0.5469890000000001           
         O81       1.0000    0.87032   0.49498   0.58784   Biso      1.000     O          -0.651594           
         O82       1.0000    0.67726   0.90520   0.10758   Biso      1.000     O          -0.5608569999999999           
         O83       1.0000    0.17726   0.59480   0.60758   Biso      1.000     O          -0.560858           
         O84       1.0000    0.02063   0.07367   0.16461   Biso      1.000     O          -0.569891           
         O85       1.0000    0.13332   0.96225   0.12949   Biso      1.000     O          -0.5990850000000001           
         O86       1.0000    0.43890   0.38167   0.00080   Biso      1.000     O          -0.8987940000000001           
         O87       1.0000    0.27157   0.82087   0.21123   Biso      1.000     O          -0.7235010000000001           
         O88       1.0000    0.34103   0.71016   0.08540   Biso      1.000     O          -0.548196           
         O89       1.0000    0.26299   0.84349   0.05564   Biso      1.000     O          -0.64323  
         O90       1.0000    0.16696   0.49440   0.26072   Biso      1.000     O          -0.528668           
         O91       1.0000    0.27650   0.60350   0.21494   Biso      1.000     O          -0.5050859999999999           
         O92       1.0000    0.36668   0.46225   0.37051   Biso      1.000     O          -0.599089           
         O93       1.0000    0.47937   0.57367   0.33539   Biso      1.000     O          -0.569892           
         O94       1.0000    0.56086   0.06433   0.06581   Biso      1.000     O          -0.546987           
         O95       1.0000    0.99638   0.62717   0.65898   Biso      1.000     O          -0.643918           
         O96       1.0000    0.50362   0.87283   0.34102   Biso      1.000     O          -0.6439159999999999           
         V1        1.0000    0.69515   0.90097   0.34085   Biso      1.000     V          1.67841   
         V2        1.0000    0.19515   0.40097   0.34085   Biso      1.000     V          1.6784459999999999  
         V3        1.0000    0.30485   0.09903   0.65915   Biso      1.000     V          1.6784310000000002  
         V4        1.0000    0.69515   0.09903   0.84085   Biso      1.000     V          1.678416  
         V5        1.0000    0.30485   0.90097   0.15915   Biso      1.000     V          1.6784080000000001  
         V6        1.0000    0.19515   0.59903   0.84085   Biso      1.000     V          1.6784290000000002  
         V7        1.0000    0.80485   0.40097   0.15915   Biso      1.000     V          1.678448  
         V8        1.0000    0.80485   0.59903   0.65915   Biso      1.000     V          1.678425 