
##########################################################################
#               Crystallographic Information Format file
#               Produced by PyCifRW module
#
#  This is a CIF file.  CIF has been adopted by the International
#  Union of Crystallography as the standard for data archiving and
#  transmission.
#
#  For information on this file format, follow the CIF links at
#  http://www.iucr.org
##########################################################################

data_image0

_cell_length_a                          11.4424
_cell_length_b                          15.1352
_cell_length_c                          15.2141
_cell_angle_alpha                       112.002
_cell_angle_beta                        96.433
_cell_angle_gamma                       98.574
_symmetry_space_group_name_H-M          'P 1'
_symmetry_int_tables_number             1
loop_
  _symmetry_equiv_pos_as_xyz
         'x, y, z' 
loop_
  _atom_site_label
  _atom_site_occupancy
  _atom_site_fract_x
  _atom_site_fract_y
  _atom_site_fract_z
  _atom_site_thermal_displace_type
  _atom_site_B_iso_or_equiv
  _atom_site_type_symbol
  _atom_site_charge
         C1        1.0000    0.30780   0.79220   0.47440   Biso      1.000     C          -0.121228           
         C2        1.0000    0.34900   0.36950   0.62820   Biso      1.000     C          -0.176375           
         C3        1.0000    0.40840   0.28570   0.92370   Biso      1.000     C          0.5604319999999999  
         C4        1.0000    0.07720   0.08790   0.65910   Biso      1.000     C          0.10129099999999999           
         C5        1.0000    0.59490   0.68160   0.96980   Biso      1.000     C          -0.018012           
         C6        1.0000    0.58320   0.05630   0.69140   Biso      1.000     C          0.095196  
         C7        1.0000    0.30450   0.84160   0.57080   Biso      1.000     C          -0.019601           
         C8        1.0000    0.29610   0.94760   0.60560   Biso      1.000     C          0.552125  
         C9        1.0000    0.63490   0.76350   0.50410   Biso      1.000     C          -0.188524           
         C10       1.0000    0.61990   0.22200   0.76410   Biso      1.000     C          0.099202  
         C11       1.0000    0.37740   0.25230   0.07050   Biso      1.000     C          -0.108644           
         C12       1.0000    0.69220   0.20780   0.52560   Biso      1.000     C          -0.12122899999999999          
         C13       1.0000    0.41200   0.44620   0.18340   Biso      1.000     C          -0.13638  
         C14       1.0000    0.37000   0.41550   0.32810   Biso      1.000     C          0.22565900000000003           
         C15       1.0000    0.08460   0.85200   0.27040   Biso      1.000     C          0.116252  
         C16       1.0000    0.63000   0.58450   0.67190   Biso      1.000     C          0.22565900000000003           
         C17       1.0000    0.29590   0.94250   0.31030   Biso      1.000     C          -0.18071700000000002          
         C18       1.0000    0.36600   0.18410   0.55160   Biso      1.000     C          0.093325  
         C19       1.0000    0.64470   0.66720   0.46760   Biso      1.000     C          0.124172  
         C20       1.0000    0.35040   0.31360   0.68010   Biso      1.000     C          0.095566  
         C21       1.0000    0.68570   0.20610   0.36890   Biso      1.000     C          -0.11055  
         C22       1.0000    0.67350   0.35310   0.50040   Biso      1.000     C          0.042476  
         C23       1.0000    0.68080   0.30430   0.56040   Biso      1.000     C          -0.136098           
         C24       1.0000    0.62940   0.64300   0.62120   Biso      1.000     C          -0.252836           
         C25       1.0000    0.57640   0.58380   0.91290   Biso      1.000     C          -0.10428299999999999          
         C26       1.0000    0.64550   0.60790   0.52530   Biso      1.000     C          0.117851  
         C27       1.0000    0.61550   0.61870   0.77470   Biso      1.000     C          0.031180000000000003          
         C28       1.0000    0.36510   0.23650   0.49590   Biso      1.000     C          -0.18851199999999999          
         C29       1.0000    0.63210   0.71780   0.83290   Biso      1.000     C          -0.154649           
         C30       1.0000    0.21380   0.85520   0.26990   Biso      1.000     C          0.113239  
         C31       1.0000    0.67670   0.30300   0.40420   Biso      1.000     C          -0.143796           
         C32       1.0000    0.04450   0.91540   0.34500   Biso      1.000     C          -0.187972           
         C33       1.0000    0.66300   0.51170   0.48530   Biso      1.000     C          -0.24848  
         C34       1.0000    0.99680   0.78080   0.20030   Biso      1.000     C          -0.191935           
         C35       1.0000    0.87860   0.78520   0.20270   Biso      1.000     C          0.095101  
         C36       1.0000    0.12140   0.21480   0.79730   Biso      1.000     C          0.09509400000000001           
         C37       1.0000    0.66040   0.45690   0.54070   Biso      1.000     C          0.219216  
         C38       1.0000    0.40510   0.31840   0.03020   Biso      1.000     C          -0.018009           
         C39       1.0000    0.25810   0.77040   0.23190   Biso      1.000     C          -0.183541           
         C40       1.0000    0.70410   0.05750   0.68970   Biso      1.000     C          -0.18071600000000002          
         C41       1.0000    0.70390   0.05240   0.39440   Biso      1.000     C          0.552124  
         C42       1.0000    0.74190   0.22960   0.76810   Biso      1.000     C          -0.183541           
         C43       1.0000    0.58800   0.55380   0.81660   Biso      1.000     C          -0.136375           
         C44       1.0000    0.31430   0.79390   0.63110   Biso      1.000     C          -0.11054000000000001          
         C45       1.0000    0.41680   0.94370   0.30860   Biso      1.000     C          0.095197  
         C46       1.0000    0.37060   0.35700   0.37880   Biso      1.000     C          -0.252836           
         C47       1.0000    0.91540   0.14800   0.72960   Biso      1.000     C          0.116251  
         C48       1.0000    0.92280   0.91210   0.34090   Biso      1.000     C          0.101296  
         C49       1.0000    0.59160   0.71430   0.07630   Biso      1.000     C          0.5604319999999999  
         C50       1.0000    0.36790   0.28220   0.16710   Biso      1.000     C          -0.154648           
         C51       1.0000    0.65100   0.63050   0.37180   Biso      1.000     C          -0.176366           
         C52       1.0000    0.32330   0.69700   0.59580   Biso      1.000     C          -0.143797           
         C53       1.0000    0.63400   0.81590   0.44840   Biso      1.000     C          0.093338  
         C54       1.0000    0.64960   0.68640   0.31990   Biso      1.000     C          0.095565  
         C55       1.0000    0.42360   0.41620   0.08710   Biso      1.000     C          -0.10428299999999999          
         C56       1.0000    0.32650   0.64690   0.49960   Biso      1.000     C          0.042476  
         C57       1.0000    0.69550   0.15840   0.42920   Biso      1.000     C          -0.019592           
         C58       1.0000    0.00320   0.21920   0.79970   Biso      1.000     C          -0.191928           
         C59       1.0000    0.33700   0.48830   0.51470   Biso      1.000     C          -0.248479           
         C60       1.0000    0.35450   0.39210   0.47470   Biso      1.000     C          0.11785   
         C61       1.0000    0.38450   0.38130   0.22530   Biso      1.000     C          0.031183  
         C62       1.0000    0.33960   0.54310   0.45930   Biso      1.000     C          0.219216  
         C63       1.0000    0.35530   0.33280   0.53240   Biso      1.000     C          0.124179  
         C64       1.0000    0.38010   0.77800   0.23590   Biso      1.000     C          0.099202  
         C65       1.0000    0.78620   0.14480   0.73010   Biso      1.000     C          0.113239  
         C66       1.0000    0.62260   0.74770   0.92950   Biso      1.000     C          -0.10864000000000001          
         C67       1.0000    0.95550   0.08460   0.65500   Biso      1.000     C          -0.187967           
         C68       1.0000    0.31920   0.69570   0.43960   Biso      1.000     C          -0.136098           
         H1        1.0000    0.65630   0.56560   0.34140   Biso      1.000     H          0.126108  
         H2        1.0000    0.27010   0.00050   0.33850   Biso      1.000     H          0.127447  
         H3        1.0000    0.67810   0.33650   0.62530   Biso      1.000     H          0.106031  
         H4        1.0000    0.57670   0.48740   0.77920   Biso      1.000     H          0.105663  
         H5        1.0000    0.65450   0.65770   0.25500   Biso      1.000     H          0.096568  
         H6        1.0000    0.69770   0.17620   0.56740   Biso      1.000     H          0.10115   
         H7        1.0000    0.62760   0.88070   0.47670   Biso      1.000     H          0.093251  
         H8        1.0000    0.63520   0.81390   0.96770   Biso      1.000     H          0.11951800000000001           
         H9        1.0000    0.62880   0.79350   0.56860   Biso      1.000     H          0.12204300000000001           
         H10       1.0000    0.09900   0.96080   0.39870   Biso      1.000     H          0.132982  
         H11       1.0000    0.67610   0.48510   0.42220   Biso      1.000     H          0.129919  
         H12       1.0000    0.47040   0.00350   0.33330   Biso      1.000     H          0.092784  
         H13       1.0000    0.01750   0.72990   0.15150   Biso      1.000     H          0.128332  
         H14       1.0000    0.40860   0.72080   0.21140   Biso      1.000     H          0.09883099999999999           
         H15       1.0000    0.89880   0.95690   0.39290   Biso      1.000     H          0.08759600000000001           
         H16       1.0000    0.17850   0.26250   0.84750   Biso      1.000     H          0.087541  
         H17       1.0000    0.82150   0.73750   0.15250   Biso      1.000     H          0.087541  
         H18       1.0000    0.68520   0.17300   0.30350   Biso      1.000     H          0.121673  
         H19       1.0000    0.36480   0.18610   0.03230   Biso      1.000     H          0.11951800000000001           
         H20       1.0000    0.42330   0.51260   0.22080   Biso      1.000     H          0.105663  
         H21       1.0000    0.20620   0.70980   0.20430   Biso      1.000     H          0.134649  
         H22       1.0000    0.37120   0.20650   0.43140   Biso      1.000     H          0.12204200000000001           
         H23       1.0000    0.72990   0.99950   0.66150   Biso      1.000     H          0.127447  
         H24       1.0000    0.98250   0.27010   0.84850   Biso      1.000     H          0.128332  
         H25       1.0000    0.32390   0.51490   0.57780   Biso      1.000     H          0.129919  
         H26       1.0000    0.90100   0.03920   0.60130   Biso      1.000     H          0.132982  
         H27       1.0000    0.32190   0.66350   0.37470   Biso      1.000     H          0.106031  
         H28       1.0000    0.79380   0.29020   0.79570   Biso      1.000     H          0.134649  
         H29       1.0000    0.31480   0.82700   0.69650   Biso      1.000     H          0.121672  
         H30       1.0000    0.38190   0.29370   0.34910   Biso      1.000     H          0.12744   
         H31       1.0000    0.44370   0.46210   0.06140   Biso      1.000     H          0.12240899999999999           
         H32       1.0000    0.35040   0.23620   0.19310   Biso      1.000     H          0.110444  
         H33       1.0000    0.32740   0.66520   0.63750   Biso      1.000     H          0.112102  
         H34       1.0000    0.59140   0.27920   0.78860   Biso      1.000     H          0.09883099999999999           
         H35       1.0000    0.52960   0.99650   0.66670   Biso      1.000     H          0.092784  
         H36       1.0000    0.30230   0.82380   0.43260   Biso      1.000     H          0.10115   
         H37       1.0000    0.34370   0.43440   0.65860   Biso      1.000     H          0.126108  
         H38       1.0000    0.61810   0.70630   0.65090   Biso      1.000     H          0.12744   
         H39       1.0000    0.55630   0.53790   0.93860   Biso      1.000     H          0.12240899999999999           
         H40       1.0000    0.10120   0.04310   0.60710   Biso      1.000     H          0.08759700000000001           
         H41       1.0000    0.67260   0.33480   0.36250   Biso      1.000     H          0.112102  
         H42       1.0000    0.64960   0.76380   0.80690   Biso      1.000     H          0.110444  
         H43       1.0000    0.34550   0.34230   0.74500   Biso      1.000     H          0.096568  
         H44       1.0000    0.37240   0.11930   0.52330   Biso      1.000     H          0.093252  
         N1        1.0000    0.16080   0.14880   0.72990   Biso      1.000     N          -0.19271  
         N2        1.0000    0.83920   0.85120   0.27010   Biso      1.000     N          -0.192711           
         N3        1.0000    0.64440   0.49233   0.63182   Biso      1.000     N          -0.339509           
         N4        1.0000    0.35830   0.22076   0.64422   Biso      1.000     N          -0.215962           
         N5        1.0000    0.46000   0.86229   0.27282   Biso      1.000     N          -0.201128           
         N6        1.0000    0.54000   0.13771   0.72718   Biso      1.000     N          -0.201128           
         N7        1.0000    0.35560   0.50767   0.36818   Biso      1.000     N          -0.339509           
         N8        1.0000    0.64170   0.77924   0.35578   Biso      1.000     N          -0.21596300000000002          
         O1        1.0000    0.31550   0.99482   0.69685   Biso      1.000     O          -0.5469470000000001           
         O2        1.0000    0.37980   0.19461   0.87507   Biso      1.000     O          -0.558267           
         O3        1.0000    0.43880   0.34690   0.89092   Biso      1.000     O          -0.5799310000000001           
         O4        1.0000    0.27410   0.98325   0.54650   Biso      1.000     O          -0.583249           
         O5        1.0000    0.56120   0.65310   0.10908   Biso      1.000     O          -0.5799300000000001           
         O6        1.0000    0.68450   0.00518   0.30315   Biso      1.000     O          -0.5469470000000001           
         O7        1.0000    0.72590   0.01675   0.45350   Biso      1.000     O          -0.583249           
         O8        1.0000    0.62020   0.80539   0.12493   Biso      1.000     O          -0.558267           
         Zn1       1.0000    0.64960   0.86101   0.26904   Biso      1.000     Zn          0.714514  
         Zn2       1.0000    0.35040   0.13899   0.73096   Biso      1.000     Zn          0.714514 