
##########################################################################
#               Crystallographic Information Format file
#               Produced by PyCifRW module
#
#  This is a CIF file.  CIF has been adopted by the International
#  Union of Crystallography as the standard for data archiving and
#  transmission.
#
#  For information on this file format, follow the CIF links at
#  http://www.iucr.org
##########################################################################

data_image0

_cell_length_a                          7.7351
_cell_length_b                          10.8172
_cell_length_c                          7.154
_cell_angle_alpha                       90
_cell_angle_beta                        90
_cell_angle_gamma                       90
_symmetry_space_group_name_H-M          'P 1'
_symmetry_int_tables_number             1
loop_
  _symmetry_equiv_pos_as_xyz
         'x, y, z' 
loop_
  _atom_site_label
  _atom_site_occupancy
  _atom_site_fract_x
  _atom_site_fract_y
  _atom_site_fract_z
  _atom_site_thermal_displace_type
  _atom_site_B_iso_or_equiv
  _atom_site_type_symbol
  _atom_site_charge
         Ag1       1.0000    0.72555   0.25000   0.70789   Biso      1.000     Ag          0.250651  
         Ag2       1.0000    0.22555   0.25000   0.79211   Biso      1.000     Ag          0.250652  
         Ag3       1.0000    0.27445   0.75000   0.29211   Biso      1.000     Ag          0.250649  
         Ag4       1.0000    0.77445   0.75000   0.20789   Biso      1.000     Ag          0.250655  
         C1        1.0000    0.16350   0.01070   0.49080   Biso      1.000     C          0.142886  
         C2        1.0000    0.33650   0.51070   0.99080   Biso      1.000     C          0.14289   
         C3        1.0000    0.66350   0.48930   0.00920   Biso      1.000     C          0.14289   
         C4        1.0000    0.16350   0.48930   0.49080   Biso      1.000     C          0.14289   
         C5        1.0000    0.83650   0.51070   0.50920   Biso      1.000     C          0.14289   
         C6        1.0000    0.66350   0.01070   0.00920   Biso      1.000     C          0.14289   
         C7        1.0000    0.33650   0.98930   0.99080   Biso      1.000     C          0.14289   
         C8        1.0000    0.83650   0.98930   0.50920   Biso      1.000     C          0.142895  
         H1        1.0000    0.71600   0.51900   0.51700   Biso      1.000     H          0.087259  
         H2        1.0000    0.78400   0.48100   0.01700   Biso      1.000     H          0.087258  
         H3        1.0000    0.78400   0.01900   0.01700   Biso      1.000     H          0.087259  
         H4        1.0000    0.28400   0.01900   0.48300   Biso      1.000     H          0.087258  
         H5        1.0000    0.71600   0.98100   0.51700   Biso      1.000     H          0.087258  
         H6        1.0000    0.28400   0.48100   0.48300   Biso      1.000     H          0.087258  
         H7        1.0000    0.21600   0.98100   0.98300   Biso      1.000     H          0.087258  
         H8        1.0000    0.21600   0.51900   0.98300   Biso      1.000     H          0.087258  
         N1        1.0000    0.40890   0.08155   0.89540   Biso      1.000     N          -0.179651           
         N2        1.0000    0.42140   0.59212   0.09590   Biso      1.000     N          -0.175858           
         N3        1.0000    0.59110   0.58155   0.10460   Biso      1.000     N          -0.179616           
         N4        1.0000    0.57860   0.09212   0.90410   Biso      1.000     N          -0.175823           
         N5        1.0000    0.90890   0.08155   0.60460   Biso      1.000     N          -0.179652           
         N6        1.0000    0.57860   0.40788   0.90410   Biso      1.000     N          -0.175859           
         N7        1.0000    0.59110   0.91845   0.10460   Biso      1.000     N          -0.179651           
         N8        1.0000    0.40890   0.41845   0.89540   Biso      1.000     N          -0.179616           
         N9        1.0000    0.92140   0.59212   0.40410   Biso      1.000     N          -0.175859           
         N10       1.0000    0.92140   0.90788   0.40410   Biso      1.000     N          -0.175859           
         N11       1.0000    0.09110   0.91845   0.39540   Biso      1.000     N          -0.179615           
         N12       1.0000    0.07860   0.40788   0.59590   Biso      1.000     N          -0.175859           
         N13       1.0000    0.90890   0.41845   0.60460   Biso      1.000     N          -0.179616           
         N14       1.0000    0.07860   0.09212   0.59590   Biso      1.000     N          -0.175822           
         N15       1.0000    0.42140   0.90788   0.09590   Biso      1.000     N          -0.175823           
         N16       1.0000    0.09110   0.58155   0.39540   Biso      1.000     N          -0.179615 