
##########################################################################
#               Crystallographic Information Format file
#               Produced by PyCifRW module
#
#  This is a CIF file.  CIF has been adopted by the International
#  Union of Crystallography as the standard for data archiving and
#  transmission.
#
#  For information on this file format, follow the CIF links at
#  http://www.iucr.org
##########################################################################

data_image0

_cell_length_a                          11.3469
_cell_length_b                          12.2871
_cell_length_c                          12.2871
_cell_angle_alpha                       69.031
_cell_angle_beta                        72.0716
_cell_angle_gamma                       107.928
_symmetry_space_group_name_H-M          'P 1'
_symmetry_int_tables_number             1
loop_
  _symmetry_equiv_pos_as_xyz
         'x, y, z' 
loop_
  _atom_site_label
  _atom_site_occupancy
  _atom_site_fract_x
  _atom_site_fract_y
  _atom_site_fract_z
  _atom_site_thermal_displace_type
  _atom_site_B_iso_or_equiv
  _atom_site_type_symbol
  _atom_site_charge
         C1        1.0000    0.74830   0.46270   0.72410   Biso      1.000     C          0.399568  
         C2        1.0000    0.34410   0.73910   0.83210   Biso      1.000     C          -0.558972           
         C3        1.0000    0.47240   0.72410   0.81320   Biso      1.000     C          0.39916   
         C4        1.0000    0.68280   0.75640   0.72970   Biso      1.000     C          0.39656199999999997           
         C5        1.0000    0.83450   0.81320   0.64070   Biso      1.000     C          -0.584854           
         C6        1.0000    0.17620   0.83210   0.42880   Biso      1.000     C          -0.558248           
         C7        1.0000    0.28560   0.81320   0.46270   Biso      1.000     C          0.39855799999999997           
         C8        1.0000    0.41250   0.72970   0.51390   Biso      1.000     C          0.39532   
         C9        1.0000    0.47520   0.64070   0.54610   Biso      1.000     C          -0.584068           
         C10       1.0000    0.60500   0.42880   0.73910   Biso      1.000     C          -0.5596800000000001           
         C11       1.0000    0.92640   0.51390   0.75640   Biso      1.000     C          0.395633  
         C12       1.0000    0.65590   0.26090   0.16790   Biso      1.000     C          -0.558972           
         C13       1.0000    0.02130   0.54610   0.81320   Biso      1.000     C          -0.585088           
         C14       1.0000    0.31720   0.24360   0.27030   Biso      1.000     C          0.396563  
         C15       1.0000    0.16550   0.18680   0.35930   Biso      1.000     C          -0.584854           
         C16       1.0000    0.82380   0.16790   0.57120   Biso      1.000     C          -0.558248           
         C17       1.0000    0.71440   0.18680   0.53730   Biso      1.000     C          0.39855799999999997           
         C18       1.0000    0.58750   0.27030   0.48610   Biso      1.000     C          0.39532   
         C19       1.0000    0.52480   0.35930   0.45390   Biso      1.000     C          -0.584068           
         C20       1.0000    0.39500   0.57120   0.26090   Biso      1.000     C          -0.5596800000000001           
         C21       1.0000    0.25170   0.53730   0.27590   Biso      1.000     C          0.399567  
         C22       1.0000    0.07360   0.48610   0.24360   Biso      1.000     C          0.395633  
         C23       1.0000    0.97870   0.45390   0.18680   Biso      1.000     C          -0.585088           
         C24       1.0000    0.52760   0.27590   0.18680   Biso      1.000     C          0.39916   
         H1        1.0000    0.46210   0.64800   0.17630   Biso      1.000     H          0.18504600000000002           
         H2        1.0000    0.40200   0.58870   0.32940   Biso      1.000     H          0.171319  
         H3        1.0000    0.41350   0.49850   0.26740   Biso      1.000     H          0.181577  
         H4        1.0000    0.01800   0.52470   0.09860   Biso      1.000     H          0.181161  
         H5        1.0000    0.96790   0.37400   0.18520   Biso      1.000     H          0.158276  
         H6        1.0000    0.59390   0.44080   0.37400   Biso      1.000     H          0.157958  
         H7        1.0000    0.88870   0.44210   0.24010   Biso      1.000     H          0.167272  
         H8        1.0000    0.44660   0.31780   0.44210   Biso      1.000     H          0.166973  
         H9        1.0000    0.49330   0.37670   0.52470   Biso      1.000     H          0.181066  
         H10       1.0000    0.81410   0.17570   0.64800   Biso      1.000     H          0.18501099999999998           
         H11       1.0000    0.26860   0.67060   0.91810   Biso      1.000     H          0.170685  
         H12       1.0000    0.36160   0.82370   0.82430   Biso      1.000     H          0.185333  
         H13       1.0000    0.31910   0.73260   0.76590   Biso      1.000     H          0.181585  
         H14       1.0000    0.87120   0.75990   0.68220   Biso      1.000     H          0.166303  
         H15       1.0000    0.84690   0.81480   0.55920   Biso      1.000     H          0.15821400000000002           
         H16       1.0000    0.88340   0.90140   0.62330   Biso      1.000     H          0.1817    
         H17       1.0000    0.18670   0.91810   0.41130   Biso      1.000     H          0.171031  
         H18       1.0000    0.18590   0.82430   0.35200   Biso      1.000     H          0.18501099999999998           
         H19       1.0000    0.08500   0.76590   0.50150   Biso      1.000     H          0.180874  
         H20       1.0000    0.91500   0.23410   0.49850   Biso      1.000     H          0.180874  
         H21       1.0000    0.40610   0.55920   0.62600   Biso      1.000     H          0.157958  
         H22       1.0000    0.50670   0.62330   0.47530   Biso      1.000     H          0.181065  
         H23       1.0000    0.59800   0.41130   0.67060   Biso      1.000     H          0.171319  
         H24       1.0000    0.55340   0.68220   0.55790   Biso      1.000     H          0.166973  
         H25       1.0000    0.58650   0.50150   0.73260   Biso      1.000     H          0.181577  
         H26       1.0000    0.11130   0.55790   0.75990   Biso      1.000     H          0.167272  
         H27       1.0000    0.03210   0.62600   0.81480   Biso      1.000     H          0.158276  
         H28       1.0000    0.98200   0.47530   0.90140   Biso      1.000     H          0.181161  
         H29       1.0000    0.73140   0.32940   0.08190   Biso      1.000     H          0.170685  
         H30       1.0000    0.63840   0.17630   0.17570   Biso      1.000     H          0.185333  
         H31       1.0000    0.68090   0.26740   0.23410   Biso      1.000     H          0.181585  
         H32       1.0000    0.12880   0.24010   0.31780   Biso      1.000     H          0.166303  
         H33       1.0000    0.15310   0.18520   0.44080   Biso      1.000     H          0.15821400000000002           
         H34       1.0000    0.11660   0.09860   0.37670   Biso      1.000     H          0.1817    
         H35       1.0000    0.53790   0.35200   0.82370   Biso      1.000     H          0.18504600000000002           
         H36       1.0000    0.81330   0.08190   0.58870   Biso      1.000     H          0.171031  
         N1        1.0000    0.84870   0.46970   0.62940   Biso      1.000     N          -0.208669           
         N2        1.0000    0.79130   0.49140   0.80590   Biso      1.000     N          -0.381225           
         N3        1.0000    0.38540   0.35020   0.15280   Biso      1.000     N          -0.207249           
         N4        1.0000    0.03520   0.49700   0.35020   Biso      1.000     N          -0.207569           
         N5        1.0000    0.96480   0.50300   0.64980   Biso      1.000     N          -0.207565           
         N6        1.0000    0.62100   0.09910   0.53030   Biso      1.000     N          -0.20841300000000001          
         N7        1.0000    0.53820   0.15280   0.49700   Biso      1.000     N          -0.20686999999999997          
         N8        1.0000    0.40280   0.19410   0.29730   Biso      1.000     N          -0.381242           
         N9        1.0000    0.52190   0.37060   0.09910   Biso      1.000     N          -0.209548           
         N10       1.0000    0.70010   0.29730   0.50860   Biso      1.000     N          -0.38061100000000003          
         N11       1.0000    0.29990   0.70270   0.49140   Biso      1.000     N          -0.38061100000000003          
         N12       1.0000    0.20870   0.50860   0.19410   Biso      1.000     N          -0.381225           
         N13       1.0000    0.46180   0.84720   0.50300   Biso      1.000     N          -0.206875           
         N14       1.0000    0.59720   0.80590   0.70270   Biso      1.000     N          -0.381242           
         N15       1.0000    0.47810   0.62940   0.90090   Biso      1.000     N          -0.209554           
         N16       1.0000    0.61460   0.64980   0.84720   Biso      1.000     N          -0.20724299999999998          
         N17       1.0000    0.15130   0.53030   0.37060   Biso      1.000     N          -0.20866500000000002          
         N18       1.0000    0.37900   0.90090   0.46970   Biso      1.000     N          -0.20840799999999998          
         Zn1       1.0000    0.84762   0.47299   0.46476   Biso      1.000     Zn          0.102324  
         Zn2       1.0000    0.37463   0.06225   0.47299   Biso      1.000     Zn          0.101347  
         Zn3       1.0000    0.31238   0.46476   0.06225   Biso      1.000     Zn          0.102448  
         Zn4       1.0000    0.15238   0.52701   0.53524   Biso      1.000     Zn          0.102324  
         Zn5       1.0000    0.62537   0.93775   0.52701   Biso      1.000     Zn          0.10134800000000001           
         Zn6       1.0000    0.68762   0.53524   0.93775   Biso      1.000     Zn          0.102447 