
##########################################################################
#               Crystallographic Information Format file
#               Produced by PyCifRW module
#
#  This is a CIF file.  CIF has been adopted by the International
#  Union of Crystallography as the standard for data archiving and
#  transmission.
#
#  For information on this file format, follow the CIF links at
#  http://www.iucr.org
##########################################################################

data_image0

_cell_length_a                          19.703
_cell_length_b                          9.5197
_cell_length_c                          20.127
_cell_angle_alpha                       90
_cell_angle_beta                        106.26
_cell_angle_gamma                       90
_symmetry_space_group_name_H-M          'P 1'
_symmetry_int_tables_number             1
loop_
  _symmetry_equiv_pos_as_xyz
         'x, y, z' 
loop_
  _atom_site_label
  _atom_site_occupancy
  _atom_site_fract_x
  _atom_site_fract_y
  _atom_site_fract_z
  _atom_site_thermal_displace_type
  _atom_site_B_iso_or_equiv
  _atom_site_type_symbol
  _atom_site_charge
         C1        1.0000    0.07770   0.46960   0.82390   Biso      1.000     C          -0.21406  
         C2        1.0000    0.18020   0.53540   0.79020   Biso      1.000     C          -0.260774           
         C3        1.0000    0.70540   0.11230   0.85160   Biso      1.000     C          0.017717  
         C4        1.0000    0.88210   0.46180   0.72390   Biso      1.000     C          0.376803  
         C5        1.0000    0.68020   0.03540   0.79020   Biso      1.000     C          -0.260827           
         C6        1.0000    0.88210   0.53820   0.22390   Biso      1.000     C          0.376784  
         C7        1.0000    0.81980   0.46460   0.20980   Biso      1.000     C          -0.26074200000000003          
         C8        1.0000    0.20540   0.61230   0.85160   Biso      1.000     C          0.017713999999999997          
         C9        1.0000    0.79460   0.38770   0.14840   Biso      1.000     C          0.017719  
         C10       1.0000    0.83470   0.38330   0.10160   Biso      1.000     C          -0.19200599999999998          
         C11       1.0000    0.05650   0.55230   0.93360   Biso      1.000     C          0.62041   
         C12       1.0000    0.89860   0.45730   0.11550   Biso      1.000     C          -0.064805           
         C13       1.0000    0.92230   0.53040   0.17610   Biso      1.000     C          -0.213984           
         C14       1.0000    0.16530   0.61670   0.89840   Biso      1.000     C          -0.19201  
         C15       1.0000    0.73010   0.30100   0.13660   Biso      1.000     C          0.591593  
         C16       1.0000    0.94350   0.44770   0.06640   Biso      1.000     C          0.620336  
         C17       1.0000    0.61790   0.96180   0.77610   Biso      1.000     C          0.37679   
         C18       1.0000    0.79460   0.61230   0.64840   Biso      1.000     C          0.017749  
         C19       1.0000    0.10140   0.54270   0.88450   Biso      1.000     C          -0.064835           
         C20       1.0000    0.94350   0.55230   0.56640   Biso      1.000     C          0.620395  
         C21       1.0000    0.73010   0.69900   0.63660   Biso      1.000     C          0.591587  
         C22       1.0000    0.44350   0.94770   0.06640   Biso      1.000     C          0.620305  
         C23       1.0000    0.92230   0.46960   0.67610   Biso      1.000     C          -0.213863           
         C24       1.0000    0.38210   0.03820   0.22390   Biso      1.000     C          0.376786  
         C25       1.0000    0.31980   0.96460   0.20980   Biso      1.000     C          -0.260799           
         C26       1.0000    0.89860   0.54270   0.61550   Biso      1.000     C          -0.064826           
         C27       1.0000    0.29460   0.88770   0.14840   Biso      1.000     C          0.017652  
         C28       1.0000    0.33470   0.88330   0.10160   Biso      1.000     C          -0.192048           
         C29       1.0000    0.23010   0.80100   0.13660   Biso      1.000     C          0.591646  
         C30       1.0000    0.39860   0.95730   0.11550   Biso      1.000     C          -0.06479700000000001          
         C31       1.0000    0.66530   0.11670   0.89840   Biso      1.000     C          -0.19196400000000002          
         C32       1.0000    0.42230   0.03040   0.17610   Biso      1.000     C          -0.214013           
         C33       1.0000    0.38210   0.96180   0.72390   Biso      1.000     C          0.376804  
         C34       1.0000    0.55650   0.94770   0.43360   Biso      1.000     C          0.620302  
         C35       1.0000    0.11790   0.46180   0.77610   Biso      1.000     C          0.376797  
         C36       1.0000    0.11790   0.53820   0.27610   Biso      1.000     C          0.376804  
         C37       1.0000    0.18020   0.46460   0.29020   Biso      1.000     C          -0.260708           
         C38       1.0000    0.44350   0.05230   0.56640   Biso      1.000     C          0.620362  
         C39       1.0000    0.20540   0.38770   0.35160   Biso      1.000     C          0.017684000000000002          
         C40       1.0000    0.16530   0.38330   0.39840   Biso      1.000     C          -0.19203699999999999          
         C41       1.0000    0.23010   0.19900   0.63660   Biso      1.000     C          0.591649  
         C42       1.0000    0.10140   0.45730   0.38450   Biso      1.000     C          -0.064854           
         C43       1.0000    0.07770   0.53040   0.32390   Biso      1.000     C          -0.21401199999999998          
         C44       1.0000    0.81980   0.53540   0.70980   Biso      1.000     C          -0.260763           
         C45       1.0000    0.26990   0.30100   0.36340   Biso      1.000     C          0.591598  
         C46       1.0000    0.05650   0.44770   0.43360   Biso      1.000     C          0.6204770000000001  
         C47       1.0000    0.42230   0.96960   0.67610   Biso      1.000     C          -0.213919           
         C48       1.0000    0.39860   0.04270   0.61550   Biso      1.000     C          -0.064812           
         C49       1.0000    0.55650   0.05230   0.93360   Biso      1.000     C          0.620243  
         C50       1.0000    0.76990   0.19900   0.86340   Biso      1.000     C          0.591645  
         C51       1.0000    0.33470   0.11670   0.60160   Biso      1.000     C          -0.19198099999999998          
         C52       1.0000    0.57770   0.96960   0.82390   Biso      1.000     C          -0.213917           
         C53       1.0000    0.61790   0.03820   0.27610   Biso      1.000     C          0.376798  
         C54       1.0000    0.68020   0.96460   0.29020   Biso      1.000     C          -0.260782           
         C55       1.0000    0.29460   0.11230   0.64840   Biso      1.000     C          0.017683  
         C56       1.0000    0.70540   0.88770   0.35160   Biso      1.000     C          0.017684000000000002          
         C57       1.0000    0.66530   0.88330   0.39840   Biso      1.000     C          -0.191968           
         C58       1.0000    0.26990   0.69900   0.86340   Biso      1.000     C          0.591585  
         C59       1.0000    0.60140   0.95730   0.38450   Biso      1.000     C          -0.064795           
         C60       1.0000    0.57770   0.03040   0.32390   Biso      1.000     C          -0.213846           
         C61       1.0000    0.31980   0.03540   0.70980   Biso      1.000     C          -0.260791           
         C62       1.0000    0.76990   0.80100   0.36340   Biso      1.000     C          0.5916560000000001  
         C63       1.0000    0.60140   0.04270   0.88450   Biso      1.000     C          -0.06477000000000001          
         C64       1.0000    0.83470   0.61670   0.60160   Biso      1.000     C          -0.191912           
         H1        1.0000    0.79370   0.53420   0.74170   Biso      1.000     H          0.120736  
         H2        1.0000    0.12300   0.64600   0.00000   Biso      1.000     H          0.419353  
         H3        1.0000    0.96580   0.42420   0.68600   Biso      1.000     H          0.131088  
         H4        1.0000    0.18090   0.66880   0.93890   Biso      1.000     H          0.11436099999999999           
         H5        1.0000    0.87700   0.64600   0.50000   Biso      1.000     H          0.41931899999999994           
         H6        1.0000    0.29370   0.03420   0.74170   Biso      1.000     H          0.120734  
         H7        1.0000    0.31910   0.16880   0.56110   Biso      1.000     H          0.114373  
         H8        1.0000    0.46580   0.92420   0.68600   Biso      1.000     H          0.13109500000000002           
         H9        1.0000    0.81910   0.66880   0.56110   Biso      1.000     H          0.114389  
         H10       1.0000    0.20630   0.53420   0.75830   Biso      1.000     H          0.12069300000000001           
         H11       1.0000    0.37700   0.14600   0.50000   Biso      1.000     H          0.41931   
         H12       1.0000    0.62300   0.14600   0.00000   Biso      1.000     H          0.419232  
         H13       1.0000    0.20630   0.46580   0.25830   Biso      1.000     H          0.120706  
         H14       1.0000    0.18090   0.33120   0.43890   Biso      1.000     H          0.114346  
         H15       1.0000    0.03420   0.57580   0.31400   Biso      1.000     H          0.131083  
         H16       1.0000    0.12300   0.35400   0.50000   Biso      1.000     H          0.419335  
         H17       1.0000    0.53420   0.92420   0.81400   Biso      1.000     H          0.131104  
         H18       1.0000    0.70630   0.96580   0.25830   Biso      1.000     H          0.12074000000000001           
         H19       1.0000    0.68090   0.83120   0.43890   Biso      1.000     H          0.114376  
         H20       1.0000    0.53420   0.07580   0.31400   Biso      1.000     H          0.131105  
         H21       1.0000    0.68090   0.16880   0.93890   Biso      1.000     H          0.11439   
         H22       1.0000    0.62300   0.85400   0.50000   Biso      1.000     H          0.41923900000000003           
         H23       1.0000    0.03420   0.42420   0.81400   Biso      1.000     H          0.131081  
         H24       1.0000    0.79370   0.46580   0.24170   Biso      1.000     H          0.12069300000000001           
         H25       1.0000    0.70630   0.03420   0.75830   Biso      1.000     H          0.12072000000000001           
         H26       1.0000    0.96580   0.57580   0.18600   Biso      1.000     H          0.131096  
         H27       1.0000    0.37700   0.85400   0.00000   Biso      1.000     H          0.419257  
         H28       1.0000    0.46580   0.07580   0.18600   Biso      1.000     H          0.131098  
         H29       1.0000    0.81910   0.33120   0.06110   Biso      1.000     H          0.11436700000000001           
         H30       1.0000    0.29370   0.96580   0.24170   Biso      1.000     H          0.1207    
         H31       1.0000    0.31910   0.83120   0.06110   Biso      1.000     H          0.114353  
         H32       1.0000    0.87700   0.35400   0.00000   Biso      1.000     H          0.419241  
         O1        1.0000    0.30010   0.74220   0.92420   Biso      1.000     O          -0.626834           
         O2        1.0000    0.50450   0.00550   0.58510   Biso      1.000     O          -0.574259           
         O3        1.0000    0.79680   0.22950   0.81520   Biso      1.000     O          -0.539165           
         O4        1.0000    0.80010   0.24220   0.92420   Biso      1.000     O          -0.6268560000000001           
         O5        1.0000    0.99550   0.50550   0.91490   Biso      1.000     O          -0.5743199999999999           
         O6        1.0000    0.29680   0.72950   0.81520   Biso      1.000     O          -0.539129           
         O7        1.0000    0.59320   0.88000   0.71920   Biso      1.000     O          -0.575566           
         O8        1.0000    0.58200   0.10860   0.99120   Biso      1.000     O          -0.55992  
         O9        1.0000    0.09320   0.38000   0.71920   Biso      1.000     O          -0.5757479999999999           
         O10       1.0000    0.08200   0.60860   0.99120   Biso      1.000     O          -0.560072           
         O11       1.0000    0.50450   0.99450   0.08510   Biso      1.000     O          -0.574414           
         O12       1.0000    0.49550   0.00550   0.91490   Biso      1.000     O          -0.5744060000000001           
         O13       1.0000    0.91800   0.39140   0.00880   Biso      1.000     O          -0.55985  
         O14       1.0000    0.80010   0.75780   0.42420   Biso      1.000     O          -0.626803           
         O15       1.0000    0.58200   0.89140   0.49120   Biso      1.000     O          -0.559863           
         O16       1.0000    0.49550   0.99450   0.41490   Biso      1.000     O          -0.57418  
         O17       1.0000    0.99550   0.49450   0.41490   Biso      1.000     O          -0.574037           
         O18       1.0000    0.90680   0.62000   0.28080   Biso      1.000     O          -0.5757220000000001           
         O19       1.0000    0.70320   0.27050   0.18480   Biso      1.000     O          -0.539167           
         O20       1.0000    0.69990   0.25780   0.07580   Biso      1.000     O          -0.626843           
         O21       1.0000    0.08200   0.39140   0.49120   Biso      1.000     O          -0.559944           
         O22       1.0000    0.41800   0.10860   0.50880   Biso      1.000     O          -0.5599850000000001           
         O23       1.0000    0.00450   0.49450   0.08510   Biso      1.000     O          -0.574182           
         O24       1.0000    0.30010   0.25780   0.42420   Biso      1.000     O          -0.626796           
         O25       1.0000    0.40680   0.12000   0.28080   Biso      1.000     O          -0.575735           
         O26       1.0000    0.20320   0.77050   0.18480   Biso      1.000     O          -0.538963           
         O27       1.0000    0.19990   0.75780   0.07580   Biso      1.000     O          -0.62679  
         O28       1.0000    0.41800   0.89140   0.00880   Biso      1.000     O          -0.5599430000000001           
         O29       1.0000    0.29680   0.27050   0.31520   Biso      1.000     O          -0.538983           
         O30       1.0000    0.90680   0.38000   0.78080   Biso      1.000     O          -0.5755600000000001           
         O31       1.0000    0.70320   0.72950   0.68480   Biso      1.000     O          -0.539097           
         O32       1.0000    0.69990   0.74220   0.57580   Biso      1.000     O          -0.626831           
         O33       1.0000    0.91800   0.60860   0.50880   Biso      1.000     O          -0.559964           
         O34       1.0000    0.00450   0.50550   0.58510   Biso      1.000     O          -0.574066           
         O35       1.0000    0.09320   0.62000   0.21920   Biso      1.000     O          -0.57589  
         O36       1.0000    0.40680   0.88000   0.78080   Biso      1.000     O          -0.575673           
         O37       1.0000    0.20320   0.22950   0.68480   Biso      1.000     O          -0.5389510000000001           
         O38       1.0000    0.19990   0.24220   0.57580   Biso      1.000     O          -0.626791           
         O39       1.0000    0.79680   0.77050   0.31520   Biso      1.000     O          -0.53895  
         O40       1.0000    0.59320   0.12000   0.21920   Biso      1.000     O          -0.575608           
         U1        1.0000    0.10488   0.36508   0.61128   Biso      1.000     U          1.215151  
         U2        1.0000    0.89512   0.63492   0.38872   Biso      1.000     U          1.2151889999999999  
         U3        1.0000    0.60488   0.86508   0.61128   Biso      1.000     U          1.215183  
         U4        1.0000    0.39512   0.13492   0.38872   Biso      1.000     U          1.2149729999999999  
         U5        1.0000    0.89512   0.36508   0.88872   Biso      1.000     U          1.215717  
         U6        1.0000    0.39512   0.86508   0.88872   Biso      1.000     U          1.215436  
         U7        1.0000    0.60488   0.13492   0.11128   Biso      1.000     U          1.215507  
         U8        1.0000    0.10488   0.63492   0.11128   Biso      1.000     U          1.215457 