
##########################################################################
#               Crystallographic Information Format file
#               Produced by PyCifRW module
#
#  This is a CIF file.  CIF has been adopted by the International
#  Union of Crystallography as the standard for data archiving and
#  transmission.
#
#  For information on this file format, follow the CIF links at
#  http://www.iucr.org
##########################################################################

data_image0

_cell_length_a                          11.993
_cell_length_b                          19.632
_cell_length_c                          18.143
_cell_angle_alpha                       90
_cell_angle_beta                        102.06
_cell_angle_gamma                       90
_symmetry_space_group_name_H-M          'P 1'
_symmetry_int_tables_number             1
loop_
  _symmetry_equiv_pos_as_xyz
         'x, y, z' 
loop_
  _atom_site_label
  _atom_site_occupancy
  _atom_site_fract_x
  _atom_site_fract_y
  _atom_site_fract_z
  _atom_site_thermal_displace_type
  _atom_site_B_iso_or_equiv
  _atom_site_type_symbol
  _atom_site_charge
         C1        1.0000    0.29930   0.25826   0.93759   Biso      1.000     C          -0.32519000000000003          
         C2        1.0000    0.34990   0.26712   0.86902   Biso      1.000     C          0.6627310000000001  
         C3        1.0000    0.35140   0.21644   0.99700   Biso      1.000     C          0.205679  
         C4        1.0000    0.19860   0.29193   0.94123   Biso      1.000     C          0.22772699999999998           
         C5        1.0000    0.51110   0.57152   0.36188   Biso      1.000     C          0.72509   
         C6        1.0000    0.10420   0.00745   0.47870   Biso      1.000     C          0.21075100000000002           
         C7        1.0000    0.90070   0.02682   0.45522   Biso      1.000     C          0.20809299999999997           
         C8        1.0000    0.84990   0.23288   0.36902   Biso      1.000     C          0.6627310000000001  
         C9        1.0000    0.59930   0.52682   0.04478   Biso      1.000     C          0.20809299999999997           
         C10       1.0000    0.39580   0.50745   0.02130   Biso      1.000     C          0.21075100000000002           
         C11       1.0000    0.49470   0.53395   0.06699   Biso      1.000     C          -0.308713           
         C12       1.0000    0.48890   0.57152   0.13812   Biso      1.000     C          0.72509   
         C13       1.0000    0.79930   0.24174   0.43759   Biso      1.000     C          -0.32519000000000003          
         C14       1.0000    0.30140   0.20807   0.05877   Biso      1.000     C          0.22772699999999998           
         C15       1.0000    0.98890   0.92848   0.63812   Biso      1.000     C          0.72509   
         C16       1.0000    0.40070   0.47318   0.95522   Biso      1.000     C          0.20809299999999997           
         C17       1.0000    0.99470   0.96605   0.56699   Biso      1.000     C          -0.308713           
         C18       1.0000    0.09930   0.97318   0.54478   Biso      1.000     C          0.20809299999999997           
         C19       1.0000    0.15010   0.76712   0.63098   Biso      1.000     C          0.6627310000000001  
         C20       1.0000    0.20070   0.75826   0.56241   Biso      1.000     C          -0.32519000000000003          
         C21       1.0000    0.14860   0.71644   0.50300   Biso      1.000     C          0.205679  
         C22       1.0000    0.30140   0.79193   0.55877   Biso      1.000     C          0.22772699999999998           
         C23       1.0000    0.85140   0.28356   0.49700   Biso      1.000     C          0.205679  
         C24       1.0000    0.80140   0.29193   0.55877   Biso      1.000     C          0.22772699999999998           
         C25       1.0000    0.64860   0.21644   0.50300   Biso      1.000     C          0.20567800000000003           
         C26       1.0000    0.70070   0.25826   0.56241   Biso      1.000     C          -0.32518800000000003          
         C27       1.0000    0.65010   0.26712   0.63098   Biso      1.000     C          0.6627310000000001  
         C28       1.0000    0.59930   0.47318   0.54478   Biso      1.000     C          0.20809299999999997           
         C29       1.0000    0.39580   0.49255   0.52130   Biso      1.000     C          0.21075100000000002           
         C30       1.0000    0.49470   0.46605   0.56699   Biso      1.000     C          -0.308713           
         C31       1.0000    0.48890   0.42848   0.63812   Biso      1.000     C          0.72509   
         C32       1.0000    0.89580   0.99255   0.52130   Biso      1.000     C          0.210752  
         C33       1.0000    0.60420   0.49255   0.97870   Biso      1.000     C          0.210752  
         C34       1.0000    0.69860   0.20807   0.44123   Biso      1.000     C          0.227729  
         C35       1.0000    0.51110   0.42848   0.86188   Biso      1.000     C          0.72509   
         C36       1.0000    0.85140   0.71644   0.99700   Biso      1.000     C          0.20567800000000003           
         C37       1.0000    0.79930   0.75826   0.93759   Biso      1.000     C          -0.32519000000000003          
         C38       1.0000    0.84990   0.76712   0.86902   Biso      1.000     C          0.6627310000000001  
         C39       1.0000    0.90070   0.97318   0.95522   Biso      1.000     C          0.20809299999999997           
         C40       1.0000    0.10420   0.99255   0.97870   Biso      1.000     C          0.21075100000000002           
         C41       1.0000    0.00530   0.96605   0.93301   Biso      1.000     C          -0.308713           
         C42       1.0000    0.01110   0.92848   0.86188   Biso      1.000     C          0.72509   
         C43       1.0000    0.89580   0.00745   0.02130   Biso      1.000     C          0.210752  
         C44       1.0000    0.70070   0.74174   0.06241   Biso      1.000     C          -0.32519000000000003          
         C45       1.0000    0.09930   0.02682   0.04478   Biso      1.000     C          0.20809299999999997           
         C46       1.0000    0.64860   0.78356   0.00300   Biso      1.000     C          0.205679  
         C47       1.0000    0.15010   0.23288   0.13098   Biso      1.000     C          0.6627310000000001  
         C48       1.0000    0.20070   0.24174   0.06241   Biso      1.000     C          -0.32518800000000003          
         C49       1.0000    0.80140   0.70807   0.05877   Biso      1.000     C          0.227729  
         C50       1.0000    0.14860   0.28356   0.00300   Biso      1.000     C          0.20568000000000003           
         C51       1.0000    0.69860   0.79193   0.94123   Biso      1.000     C          0.227729  
         C52       1.0000    0.50530   0.46605   0.93301   Biso      1.000     C          -0.308713           
         C53       1.0000    0.99470   0.03395   0.06699   Biso      1.000     C          -0.308713           
         C54       1.0000    0.00530   0.03395   0.43301   Biso      1.000     C          -0.308713           
         C55       1.0000    0.50530   0.53395   0.43301   Biso      1.000     C          -0.308713           
         C56       1.0000    0.19860   0.70807   0.44123   Biso      1.000     C          0.22772699999999998           
         C57       1.0000    0.60420   0.50745   0.47870   Biso      1.000     C          0.210752  
         C58       1.0000    0.65010   0.73288   0.13098   Biso      1.000     C          0.662732  
         C59       1.0000    0.35140   0.78356   0.49700   Biso      1.000     C          0.20568000000000003           
         C60       1.0000    0.29930   0.74174   0.43759   Biso      1.000     C          -0.32518800000000003          
         C61       1.0000    0.98890   0.07152   0.13812   Biso      1.000     C          0.72509   
         C62       1.0000    0.34990   0.73288   0.36902   Biso      1.000     C          0.6627310000000001  
         C63       1.0000    0.01110   0.07152   0.36188   Biso      1.000     C          0.72509   
         C64       1.0000    0.40070   0.52682   0.45522   Biso      1.000     C          0.20809299999999997           
         H1        1.0000    0.69260   0.43370   0.62390   Biso      1.000     H          0.396891  
         H2        1.0000    0.52470   0.19410   0.54050   Biso      1.000     H          0.393275  
         H3        1.0000    0.51000   0.27300   0.71200   Biso      1.000     H          0.447713  
         H4        1.0000    0.97530   0.30590   0.45950   Biso      1.000     H          0.393275  
         H5        1.0000    0.19260   0.06630   0.12390   Biso      1.000     H          0.396891  
         H6        1.0000    0.79990   0.34230   0.63730   Biso      1.000     H          0.40776399999999996           
         H7        1.0000    0.02470   0.30590   0.04050   Biso      1.000     H          0.393275  
         H8        1.0000    0.79430   0.03250   0.07700   Biso      1.000     H          0.38714   
         H9        1.0000    0.69260   0.56630   0.12390   Biso      1.000     H          0.39689   
         H10       1.0000    0.02470   0.69410   0.54050   Biso      1.000     H          0.393275  
         H11       1.0000    0.29990   0.15770   0.13730   Biso      1.000     H          0.40776399999999996           
         H12       1.0000    0.51000   0.72700   0.21200   Biso      1.000     H          0.447713  
         H13       1.0000    0.20010   0.65770   0.36270   Biso      1.000     H          0.40776399999999996           
         H14       1.0000    0.20570   0.96750   0.92300   Biso      1.000     H          0.38714   
         H15       1.0000    0.30740   0.56630   0.37610   Biso      1.000     H          0.39689   
         H16       1.0000    0.97530   0.69410   0.95950   Biso      1.000     H          0.393275  
         H17       1.0000    0.99000   0.77300   0.78800   Biso      1.000     H          0.447713  
         H18       1.0000    0.49000   0.72700   0.28800   Biso      1.000     H          0.447713  
         H19       1.0000    0.80740   0.93370   0.87610   Biso      1.000     H          0.39689   
         H20       1.0000    0.70010   0.84230   0.86270   Biso      1.000     H          0.40776399999999996           
         H21       1.0000    0.70570   0.46750   0.92300   Biso      1.000     H          0.38714   
         H22       1.0000    0.47530   0.19410   0.95950   Biso      1.000     H          0.393275  
         H23       1.0000    0.49000   0.27300   0.78800   Biso      1.000     H          0.447713  
         H24       1.0000    0.30740   0.43370   0.87610   Biso      1.000     H          0.39689   
         H25       1.0000    0.47530   0.80590   0.45950   Biso      1.000     H          0.393275  
         H26       1.0000    0.20010   0.34230   0.86270   Biso      1.000     H          0.40776399999999996           
         H27       1.0000    0.79430   0.96750   0.57700   Biso      1.000     H          0.38714   
         H28       1.0000    0.70570   0.53250   0.42300   Biso      1.000     H          0.38714   
         H29       1.0000    0.52470   0.80590   0.04050   Biso      1.000     H          0.393275  
         H30       1.0000    0.01000   0.77300   0.71200   Biso      1.000     H          0.447713  
         H31       1.0000    0.29430   0.53250   0.07700   Biso      1.000     H          0.38714   
         H32       1.0000    0.19260   0.93370   0.62390   Biso      1.000     H          0.39689   
         H33       1.0000    0.79990   0.65770   0.13730   Biso      1.000     H          0.40776399999999996           
         H34       1.0000    0.29990   0.84230   0.63730   Biso      1.000     H          0.40776399999999996           
         H35       1.0000    0.20570   0.03250   0.42300   Biso      1.000     H          0.38714   
         H36       1.0000    0.70010   0.15770   0.36270   Biso      1.000     H          0.40776399999999996           
         H37       1.0000    0.80740   0.06630   0.37610   Biso      1.000     H          0.39689   
         H38       1.0000    0.29430   0.46750   0.57700   Biso      1.000     H          0.38714   
         H39       1.0000    0.99000   0.22700   0.28800   Biso      1.000     H          0.447713  
         H40       1.0000    0.01000   0.22700   0.21200   Biso      1.000     H          0.447713  
         Mg1       1.0000    0.84375   0.14529   0.23074   Biso      1.000     Mg          1.519484  
         Mg2       1.0000    0.65625   0.64529   0.26926   Biso      1.000     Mg          1.519484  
         Mg3       1.0000    0.84375   0.85471   0.73074   Biso      1.000     Mg          1.519484  
         Mg4       1.0000    0.15625   0.14529   0.26926   Biso      1.000     Mg          1.519484  
         Mg5       1.0000    0.34375   0.35471   0.73074   Biso      1.000     Mg          1.519484  
         Mg6       1.0000    0.15625   0.85471   0.76926   Biso      1.000     Mg          1.519484  
         Mg7       1.0000    0.65625   0.35471   0.76926   Biso      1.000     Mg          1.519484  
         Mg8       1.0000    0.34375   0.64529   0.23074   Biso      1.000     Mg          1.519484  
         O1        1.0000    0.65810   0.16210   0.39270   Biso      1.000     O          -0.481761           
         O2        1.0000    0.50000   0.29754   0.75000   Biso      1.000     O          -1.0141   
         O3        1.0000    0.00000   0.79754   0.75000   Biso      1.000     O          -1.0141   
         O4        1.0000    0.15810   0.66210   0.39270   Biso      1.000     O          -0.48176  
         O5        1.0000    0.29830   0.54640   0.41410   Biso      1.000     O          -0.47053999999999996          
         O6        1.0000    0.94610   0.25952   0.37022   Biso      1.000     O          -0.5795140000000001           
         O7        1.0000    0.79830   0.04640   0.41410   Biso      1.000     O          -0.47053999999999996          
         O8        1.0000    0.45420   0.81423   0.49872   Biso      1.000     O          -0.499468           
         O9        1.0000    0.44610   0.75952   0.37022   Biso      1.000     O          -0.5795140000000001           
         O10       1.0000    0.29360   0.70021   0.31470   Biso      1.000     O          -0.740418           
         O11       1.0000    0.95420   0.31423   0.49872   Biso      1.000     O          -0.499468           
         O12       1.0000    0.60760   0.58926   0.35257   Biso      1.000     O          -0.707604           
         O13       1.0000    0.91840   0.08209   0.31631   Biso      1.000     O          -0.711577           
         O14       1.0000    0.10760   0.08926   0.35257   Biso      1.000     O          -0.707604           
         O15       1.0000    0.41840   0.58209   0.31631   Biso      1.000     O          -0.711577           
         O16       1.0000    0.20960   0.01160   0.46260   Biso      1.000     O          -0.460505           
         O17       1.0000    0.79360   0.20021   0.31470   Biso      1.000     O          -0.740418           
         O18       1.0000    0.70960   0.51160   0.46260   Biso      1.000     O          -0.460505           
         O19       1.0000    0.08160   0.08209   0.18369   Biso      1.000     O          -0.711577           
         O20       1.0000    0.70170   0.54640   0.08590   Biso      1.000     O          -0.47053999999999996          
         O21       1.0000    0.05390   0.74048   0.62978   Biso      1.000     O          -0.5795140000000001           
         O22       1.0000    0.20640   0.79979   0.68530   Biso      1.000     O          -0.740418           
         O23       1.0000    0.79040   0.98840   0.53740   Biso      1.000     O          -0.460505           
         O24       1.0000    0.89240   0.91074   0.64743   Biso      1.000     O          -0.707604           
         O25       1.0000    0.08160   0.91791   0.68369   Biso      1.000     O          -0.711577           
         O26       1.0000    0.15810   0.33790   0.89270   Biso      1.000     O          -0.48176  
         O27       1.0000    0.29830   0.45360   0.91410   Biso      1.000     O          -0.47053999999999996          
         O28       1.0000    0.45420   0.18577   0.99872   Biso      1.000     O          -0.499468           
         O29       1.0000    0.44610   0.24048   0.87022   Biso      1.000     O          -0.5795140000000001           
         O30       1.0000    0.29360   0.29979   0.81470   Biso      1.000     O          -0.740418           
         O31       1.0000    0.70960   0.48840   0.96260   Biso      1.000     O          -0.460505           
         O32       1.0000    0.60760   0.41074   0.85257   Biso      1.000     O          -0.707604           
         O33       1.0000    0.41840   0.41791   0.81631   Biso      1.000     O          -0.711577           
         O34       1.0000    0.65810   0.83790   0.89270   Biso      1.000     O          -0.481761           
         O35       1.0000    0.79830   0.95360   0.91410   Biso      1.000     O          -0.47053999999999996          
         O36       1.0000    0.95420   0.68577   0.99872   Biso      1.000     O          -0.499468           
         O37       1.0000    0.94610   0.74048   0.87022   Biso      1.000     O          -0.5795140000000001           
         O38       1.0000    0.79360   0.79979   0.81470   Biso      1.000     O          -0.740418           
         O39       1.0000    0.20960   0.98840   0.96260   Biso      1.000     O          -0.460505           
         O40       1.0000    0.10760   0.91074   0.85257   Biso      1.000     O          -0.707604           
         O41       1.0000    0.91840   0.91791   0.81631   Biso      1.000     O          -0.711577           
         O42       1.0000    0.04580   0.68577   0.50128   Biso      1.000     O          -0.499468           
         O43       1.0000    0.84190   0.66210   0.10730   Biso      1.000     O          -0.481761           
         O44       1.0000    0.20170   0.95360   0.58590   Biso      1.000     O          -0.47053999999999996          
         O45       1.0000    0.58160   0.41791   0.68369   Biso      1.000     O          -0.711577           
         O46       1.0000    0.54580   0.81423   0.00128   Biso      1.000     O          -0.499468           
         O47       1.0000    0.55390   0.75952   0.12978   Biso      1.000     O          -0.5795140000000001           
         O48       1.0000    0.70640   0.70021   0.18530   Biso      1.000     O          -0.740418           
         O49       1.0000    0.29040   0.51160   0.03740   Biso      1.000     O          -0.460505           
         O50       1.0000    0.39240   0.58926   0.14743   Biso      1.000     O          -0.707604           
         O51       1.0000    0.58160   0.58209   0.18369   Biso      1.000     O          -0.711577           
         O52       1.0000    0.34190   0.16210   0.10730   Biso      1.000     O          -0.481761           
         O53       1.0000    0.20170   0.04640   0.08590   Biso      1.000     O          -0.47053999999999996          
         O54       1.0000    0.04580   0.31423   0.00128   Biso      1.000     O          -0.499468           
         O55       1.0000    0.05390   0.25952   0.12978   Biso      1.000     O          -0.5795140000000001           
         O56       1.0000    0.20640   0.20021   0.18530   Biso      1.000     O          -0.740418           
         O57       1.0000    0.79040   0.01160   0.03740   Biso      1.000     O          -0.460505           
         O58       1.0000    0.89240   0.08926   0.14743   Biso      1.000     O          -0.707604           
         O59       1.0000    0.00000   0.20246   0.25000   Biso      1.000     O          -1.0141   
         O60       1.0000    0.84190   0.33790   0.60730   Biso      1.000     O          -0.481761           
         O61       1.0000    0.70170   0.45360   0.58590   Biso      1.000     O          -0.47053999999999996          
         O62       1.0000    0.54580   0.18577   0.50128   Biso      1.000     O          -0.499468           
         O63       1.0000    0.55390   0.24048   0.62978   Biso      1.000     O          -0.5795140000000001           
         O64       1.0000    0.70640   0.29979   0.68530   Biso      1.000     O          -0.740418           
         O65       1.0000    0.29040   0.48840   0.53740   Biso      1.000     O          -0.460505           
         O66       1.0000    0.39240   0.41074   0.64743   Biso      1.000     O          -0.707604           
         O67       1.0000    0.34190   0.83790   0.60730   Biso      1.000     O          -0.481761           
         O68       1.0000    0.50000   0.70246   0.25000   Biso      1.000     O          -1.0141 