
##########################################################################
#               Crystallographic Information Format file
#               Produced by PyCifRW module
#
#  This is a CIF file.  CIF has been adopted by the International
#  Union of Crystallography as the standard for data archiving and
#  transmission.
#
#  For information on this file format, follow the CIF links at
#  http://www.iucr.org
##########################################################################

data_image0

_cell_length_a                          18.659
_cell_length_b                          11.251
_cell_length_c                          10.015
_cell_angle_alpha                       90
_cell_angle_beta                        114.12
_cell_angle_gamma                       90
_symmetry_space_group_name_H-M          'P 1'
_symmetry_int_tables_number             1
loop_
  _symmetry_equiv_pos_as_xyz
         'x, y, z' 
loop_
  _atom_site_label
  _atom_site_occupancy
  _atom_site_fract_x
  _atom_site_fract_y
  _atom_site_fract_z
  _atom_site_thermal_displace_type
  _atom_site_B_iso_or_equiv
  _atom_site_type_symbol
  _atom_site_charge
         C1        1.0000    0.27853   0.17094   0.42779   Biso      1.000     C          -0.223759           
         C2        1.0000    0.37747   0.91083   0.16262   Biso      1.000     C          0.671775  
         C3        1.0000    0.27853   0.82906   0.92779   Biso      1.000     C          -0.223759           
         C4        1.0000    0.12253   0.58917   0.83738   Biso      1.000     C          0.671775  
         C5        1.0000    0.87747   0.58917   0.66262   Biso      1.000     C          0.671775  
         C6        1.0000    0.28151   0.25193   0.65288   Biso      1.000     C          0.308798  
         C7        1.0000    0.77853   0.32906   0.92779   Biso      1.000     C          -0.223759           
         C8        1.0000    0.78151   0.24807   0.15288   Biso      1.000     C          0.308798  
         C9        1.0000    0.81061   0.32822   0.07970   Biso      1.000     C          -0.167049           
         C10       1.0000    0.87747   0.41083   0.16262   Biso      1.000     C          0.671775  
         C11       1.0000    0.62253   0.08917   0.83738   Biso      1.000     C          0.671775  
         C12       1.0000    0.68939   0.17178   0.92030   Biso      1.000     C          -0.16705  
         C13       1.0000    0.71849   0.25193   0.84712   Biso      1.000     C          0.308799  
         C14       1.0000    0.81061   0.67178   0.57970   Biso      1.000     C          -0.167049           
         C15       1.0000    0.31061   0.82822   0.07970   Biso      1.000     C          -0.167049           
         C16       1.0000    0.78151   0.75193   0.65288   Biso      1.000     C          0.308798  
         C17       1.0000    0.71849   0.74807   0.34712   Biso      1.000     C          0.308798  
         C18       1.0000    0.31061   0.17178   0.57970   Biso      1.000     C          -0.167049           
         C19       1.0000    0.37747   0.08917   0.66262   Biso      1.000     C          0.671775  
         C20       1.0000    0.12253   0.41083   0.33738   Biso      1.000     C          0.671775  
         C21       1.0000    0.18939   0.32822   0.42030   Biso      1.000     C          -0.16705  
         C22       1.0000    0.21849   0.24807   0.34712   Biso      1.000     C          0.308799  
         C23       1.0000    0.72147   0.82906   0.57221   Biso      1.000     C          -0.22375799999999998          
         C24       1.0000    0.22147   0.32906   0.57221   Biso      1.000     C          -0.22375799999999998          
         C25       1.0000    0.21849   0.75193   0.84712   Biso      1.000     C          0.308799  
         C26       1.0000    0.22147   0.67094   0.07221   Biso      1.000     C          -0.22375799999999998          
         C27       1.0000    0.77853   0.67094   0.42779   Biso      1.000     C          -0.22375799999999998          
         C28       1.0000    0.72147   0.17094   0.07221   Biso      1.000     C          -0.22375799999999998          
         C29       1.0000    0.62253   0.91083   0.33738   Biso      1.000     C          0.671775  
         C30       1.0000    0.68939   0.82822   0.42030   Biso      1.000     C          -0.167049           
         C31       1.0000    0.18939   0.67178   0.92030   Biso      1.000     C          -0.167049           
         C32       1.0000    0.28151   0.74807   0.15288   Biso      1.000     C          0.308799  
         Ca1       1.0000    0.00000   0.50000   0.50000   Biso      1.000     Ca          1.505436  
         Ca2       1.0000    0.50000   0.00000   0.50000   Biso      1.000     Ca          1.505436  
         Ca3       1.0000    0.50000   0.00000   0.00000   Biso      1.000     Ca          1.505436  
         Ca4       1.0000    0.00000   0.50000   0.00000   Biso      1.000     Ca          1.505436  
         H1        1.0000    0.29770   0.88230   0.87930   Biso      1.000     H          0.14286600000000002           
         H2        1.0000    0.20230   0.38230   0.62070   Biso      1.000     H          0.14286600000000002           
         H3        1.0000    0.15880   0.30000   0.16800   Biso      1.000     H          0.385009  
         H4        1.0000    0.65880   0.20000   0.66800   Biso      1.000     H          0.385009  
         H5        1.0000    0.84120   0.70000   0.83200   Biso      1.000     H          0.385009  
         H6        1.0000    0.79770   0.61770   0.37930   Biso      1.000     H          0.14286600000000002           
         H7        1.0000    0.70230   0.11770   0.12070   Biso      1.000     H          0.14286600000000002           
         H8        1.0000    0.70230   0.88230   0.62070   Biso      1.000     H          0.14286600000000002           
         H9        1.0000    0.65880   0.80000   0.16800   Biso      1.000     H          0.385009  
         H10       1.0000    0.84120   0.30000   0.33200   Biso      1.000     H          0.385009  
         H11       1.0000    0.20230   0.61770   0.12070   Biso      1.000     H          0.14286600000000002           
         H12       1.0000    0.34120   0.20000   0.83200   Biso      1.000     H          0.385009  
         H13       1.0000    0.15880   0.70000   0.66800   Biso      1.000     H          0.385009  
         H14       1.0000    0.34120   0.80000   0.33200   Biso      1.000     H          0.385009  
         H15       1.0000    0.29770   0.11770   0.37930   Biso      1.000     H          0.14286600000000002           
         H16       1.0000    0.79770   0.38230   0.87930   Biso      1.000     H          0.14286600000000002           
         O1        1.0000    0.69015   0.25693   0.69885   Biso      1.000     O          -0.500395           
         O2        1.0000    0.59261   0.02954   0.90521   Biso      1.000     O          -0.685608           
         O3        1.0000    0.60095   0.08600   0.69997   Biso      1.000     O          -0.684357           
         O4        1.0000    0.19015   0.75693   0.69885   Biso      1.000     O          -0.500395           
         O5        1.0000    0.10095   0.41400   0.19997   Biso      1.000     O          -0.684357           
         O6        1.0000    0.10095   0.58600   0.69997   Biso      1.000     O          -0.684357           
         O7        1.0000    0.09261   0.47046   0.40521   Biso      1.000     O          -0.685608           
         O8        1.0000    0.19015   0.24307   0.19885   Biso      1.000     O          -0.500395           
         O9        1.0000    0.60095   0.91400   0.19997   Biso      1.000     O          -0.684357           
         O10       1.0000    0.59261   0.97046   0.40521   Biso      1.000     O          -0.685608           
         O11       1.0000    0.69015   0.74307   0.19885   Biso      1.000     O          -0.500395           
         O12       1.0000    0.89905   0.41400   0.30003   Biso      1.000     O          -0.684357           
         O13       1.0000    0.90739   0.47046   0.09479   Biso      1.000     O          -0.685608           
         O14       1.0000    0.09261   0.52954   0.90521   Biso      1.000     O          -0.685608           
         O15       1.0000    0.80985   0.24307   0.30115   Biso      1.000     O          -0.500395           
         O16       1.0000    0.40739   0.97046   0.09479   Biso      1.000     O          -0.685608           
         O17       1.0000    0.30985   0.74307   0.30115   Biso      1.000     O          -0.500395           
         O18       1.0000    0.89905   0.58600   0.80003   Biso      1.000     O          -0.684357           
         O19       1.0000    0.80985   0.75693   0.80115   Biso      1.000     O          -0.500395           
         O20       1.0000    0.39905   0.08600   0.80003   Biso      1.000     O          -0.684357           
         O21       1.0000    0.40739   0.02954   0.59479   Biso      1.000     O          -0.685608           
         O22       1.0000    0.30985   0.25693   0.80115   Biso      1.000     O          -0.500395           
         O23       1.0000    0.39905   0.91400   0.30003   Biso      1.000     O          -0.684357           
         O24       1.0000    0.90739   0.52954   0.59479   Biso      1.000     O          -0.685608 