
##########################################################################
#               Crystallographic Information Format file
#               Produced by PyCifRW module
#
#  This is a CIF file.  CIF has been adopted by the International
#  Union of Crystallography as the standard for data archiving and
#  transmission.
#
#  For information on this file format, follow the CIF links at
#  http://www.iucr.org
##########################################################################

data_image0

_cell_length_a                          8.8601
_cell_length_b                          12.9854
_cell_length_c                          12.9854
_cell_angle_alpha                       90
_cell_angle_beta                        90
_cell_angle_gamma                       90
_symmetry_space_group_name_H-M          'P 1'
_symmetry_int_tables_number             1
loop_
  _symmetry_equiv_pos_as_xyz
         'x, y, z' 
loop_
  _atom_site_label
  _atom_site_occupancy
  _atom_site_fract_x
  _atom_site_fract_y
  _atom_site_fract_z
  _atom_site_thermal_displace_type
  _atom_site_B_iso_or_equiv
  _atom_site_type_symbol
  _atom_site_charge
         C1        1.0000    0.20790   0.00889   0.80357   Biso      1.000     C          0.124819  
         C2        1.0000    0.37660   0.80380   0.49150   Biso      1.000     C          0.584642  
         C3        1.0000    0.20790   0.69643   0.00889   Biso      1.000     C          0.124821  
         C4        1.0000    0.37660   0.69620   0.00850   Biso      1.000     C          0.584642  
         C5        1.0000    0.20790   0.49111   0.69643   Biso      1.000     C          0.124824  
         C6        1.0000    0.37660   0.49150   0.69620   Biso      1.000     C          0.584642  
         C7        1.0000    0.37660   0.00850   0.80380   Biso      1.000     C          0.584642  
         C8        1.0000    0.79210   0.19643   0.50889   Biso      1.000     C          0.124819  
         C9        1.0000    0.62340   0.19620   0.50850   Biso      1.000     C          0.584642  
         C10       1.0000    0.79210   0.30357   0.99111   Biso      1.000     C          0.124819  
         C11       1.0000    0.20790   0.80357   0.49111   Biso      1.000     C          0.124824  
         C12       1.0000    0.62340   0.30380   0.99150   Biso      1.000     C          0.584642  
         C13       1.0000    0.62340   0.50850   0.30380   Biso      1.000     C          0.584642  
         C14       1.0000    0.79210   0.99111   0.19643   Biso      1.000     C          0.124821  
         C15       1.0000    0.62340   0.99150   0.19620   Biso      1.000     C          0.584642  
         C16       1.0000    0.79210   0.50889   0.30357   Biso      1.000     C          0.124821  
         N1        1.0000    0.12580   0.48186   0.78108   Biso      1.000     N          -0.308954           
         N2        1.0000    0.12330   0.49780   0.61206   Biso      1.000     N          -0.293743           
         N3        1.0000    0.98150   0.49241   0.64732   Biso      1.000     N          -0.140415           
         N4        1.0000    0.98230   0.01704   0.75222   Biso      1.000     N          -0.08866399999999999          
         N5        1.0000    0.98150   0.00759   0.85268   Biso      1.000     N          -0.140406           
         N6        1.0000    0.12580   0.01814   0.71892   Biso      1.000     N          -0.308929           
         N7        1.0000    0.12330   0.00220   0.88794   Biso      1.000     N          -0.293719           
         N8        1.0000    0.01770   0.24778   0.51704   Biso      1.000     N          -0.08866399999999999          
         N9        1.0000    0.98230   0.48296   0.74778   Biso      1.000     N          -0.088615           
         N10       1.0000    0.01770   0.25222   0.98296   Biso      1.000     N          -0.08866399999999999          
         N11       1.0000    0.01850   0.14732   0.50759   Biso      1.000     N          -0.140406           
         N12       1.0000    0.12580   0.78108   0.01814   Biso      1.000     N          -0.308954           
         N13       1.0000    0.98150   0.64732   0.00759   Biso      1.000     N          -0.140443           
         N14       1.0000    0.98230   0.74778   0.01704   Biso      1.000     N          -0.088612           
         N15       1.0000    0.12330   0.88794   0.49780   Biso      1.000     N          -0.293743           
         N16       1.0000    0.12580   0.71892   0.48186   Biso      1.000     N          -0.30895300000000003          
         N17       1.0000    0.98150   0.85268   0.49241   Biso      1.000     N          -0.140415           
         N18       1.0000    0.98230   0.75222   0.48296   Biso      1.000     N          -0.088615           
         N19       1.0000    0.12330   0.61206   0.00220   Biso      1.000     N          -0.293715           
         N20       1.0000    0.87420   0.28108   0.51814   Biso      1.000     N          -0.308929           
         N21       1.0000    0.87420   0.51814   0.21892   Biso      1.000     N          -0.30895  
         N22       1.0000    0.87420   0.98186   0.28108   Biso      1.000     N          -0.30895  
         N23       1.0000    0.01850   0.35268   0.99241   Biso      1.000     N          -0.140406           
         N24       1.0000    0.87420   0.21892   0.98186   Biso      1.000     N          -0.308929           
         N25       1.0000    0.87670   0.38794   0.99780   Biso      1.000     N          -0.29372  
         N26       1.0000    0.01770   0.51704   0.25222   Biso      1.000     N          -0.088644           
         N27       1.0000    0.01850   0.50759   0.35268   Biso      1.000     N          -0.14040899999999998          
         N28       1.0000    0.87670   0.50220   0.38794   Biso      1.000     N          -0.29372  
         N29       1.0000    0.01770   0.98296   0.24778   Biso      1.000     N          -0.088644           
         N30       1.0000    0.01850   0.99241   0.14732   Biso      1.000     N          -0.14040899999999998          
         N31       1.0000    0.87670   0.11206   0.50220   Biso      1.000     N          -0.293719           
         N32       1.0000    0.87670   0.99780   0.11206   Biso      1.000     N          -0.29372  
         O1        1.0000    0.56014   0.21777   0.98386   Biso      1.000     O          -0.605113           
         O2        1.0000    0.43986   0.78223   0.01614   Biso      1.000     O          -0.605113           
         O3        1.0000    0.44152   0.61047   0.00128   Biso      1.000     O          -0.635318           
         O4        1.0000    0.43986   0.48386   0.78223   Biso      1.000     O          -0.605113           
         O5        1.0000    0.55848   0.11047   0.50128   Biso      1.000     O          -0.635317           
         O6        1.0000    0.43986   0.01614   0.71777   Biso      1.000     O          -0.605114           
         O7        1.0000    0.44152   0.00128   0.88953   Biso      1.000     O          -0.635317           
         O8        1.0000    0.56014   0.28223   0.51614   Biso      1.000     O          -0.605113           
         O9        1.0000    0.55848   0.38953   0.99872   Biso      1.000     O          -0.635318           
         O10       1.0000    0.44152   0.49872   0.61047   Biso      1.000     O          -0.635317           
         O11       1.0000    0.56014   0.51614   0.21777   Biso      1.000     O          -0.605114           
         O12       1.0000    0.43986   0.71777   0.48386   Biso      1.000     O          -0.605114           
         O13       1.0000    0.56014   0.98386   0.28223   Biso      1.000     O          -0.605113           
         O14       1.0000    0.55848   0.99872   0.11047   Biso      1.000     O          -0.635317           
         O15       1.0000    0.44152   0.88953   0.49872   Biso      1.000     O          -0.635317           
         O16       1.0000    0.55848   0.50128   0.38953   Biso      1.000     O          -0.635317           
         Sr1       1.0000    0.28641   0.05506   0.54883   Biso      1.000     Sr          1.36269   
         Sr2       1.0000    0.28641   0.44494   0.95117   Biso      1.000     Sr          1.362689  
         Sr3       1.0000    0.28641   0.54883   0.44494   Biso      1.000     Sr          1.362692  
         Sr4       1.0000    0.28641   0.95117   0.05506   Biso      1.000     Sr          1.362689  
         Sr5       1.0000    0.71359   0.94494   0.45117   Biso      1.000     Sr          1.36269   
         Sr6       1.0000    0.71359   0.55506   0.04883   Biso      1.000     Sr          1.3626909999999999  
         Sr7       1.0000    0.71359   0.45117   0.55506   Biso      1.000     Sr          1.362688  
         Sr8       1.0000    0.71359   0.04883   0.94494   Biso      1.000     Sr          1.362687 