
##########################################################################
#               Crystallographic Information Format file
#               Produced by PyCifRW module
#
#  This is a CIF file.  CIF has been adopted by the International
#  Union of Crystallography as the standard for data archiving and
#  transmission.
#
#  For information on this file format, follow the CIF links at
#  http://www.iucr.org
##########################################################################

data_image0

_cell_length_a                          9.9939
_cell_length_b                          10.6523
_cell_length_c                          10.9658
_cell_angle_alpha                       80.558
_cell_angle_beta                        72.257
_cell_angle_gamma                       74.541
_symmetry_space_group_name_H-M          'P 1'
_symmetry_int_tables_number             1
loop_
  _symmetry_equiv_pos_as_xyz
         'x, y, z' 
loop_
  _atom_site_label
  _atom_site_occupancy
  _atom_site_fract_x
  _atom_site_fract_y
  _atom_site_fract_z
  _atom_site_thermal_displace_type
  _atom_site_B_iso_or_equiv
  _atom_site_type_symbol
  _atom_site_charge
         C1        1.0000    0.27510   0.49300   0.95740   Biso      1.000     C          -0.062555           
         C2        1.0000    0.68510   0.57430   0.93530   Biso      1.000     C          -0.102831           
         C3        1.0000    0.11120   0.85170   0.95880   Biso      1.000     C          0.052999  
         C4        1.0000    0.91590   0.72480   0.13140   Biso      1.000     C          -0.080152           
         C5        1.0000    0.05960   0.47870   0.43810   Biso      1.000     C          0.505031  
         C6        1.0000    0.31190   0.53860   0.71980   Biso      1.000     C          0.571141  
         C7        1.0000    0.22310   0.92470   0.87430   Biso      1.000     C          0.538833  
         C8        1.0000    0.43900   0.32680   0.04680   Biso      1.000     C          0.091761  
         C9        1.0000    0.03670   0.73960   0.15870   Biso      1.000     C          0.094964  
         C10       1.0000    0.31490   0.42570   0.06470   Biso      1.000     C          -0.10282  
         C11       1.0000    0.94040   0.52130   0.56190   Biso      1.000     C          0.505036  
         C12       1.0000    0.56100   0.67320   0.95320   Biso      1.000     C          0.091755  
         C13       1.0000    0.36060   0.46270   0.83490   Biso      1.000     C          -0.033074           
         C14       1.0000    0.48560   0.36380   0.82580   Biso      1.000     C          0.080862  
         C15       1.0000    0.59470   0.33090   0.69990   Biso      1.000     C          0.5365    
         C16       1.0000    0.02960   0.11570   0.20770   Biso      1.000     C          0.634823  
         C17       1.0000    0.97040   0.88430   0.79230   Biso      1.000     C          0.634861  
         C18       1.0000    0.96330   0.26040   0.84130   Biso      1.000     C          0.094957  
         C19       1.0000    0.40530   0.66910   0.30010   Biso      1.000     C          0.536488  
         C20       1.0000    0.08410   0.27520   0.86860   Biso      1.000     C          -0.080157           
         C21       1.0000    0.51440   0.63620   0.17420   Biso      1.000     C          0.080861  
         C22       1.0000    0.10590   0.22450   0.98710   Biso      1.000     C          -0.074389           
         C23       1.0000    0.00680   0.16150   0.07620   Biso      1.000     C          -0.059398           
         C24       1.0000    0.88880   0.14830   0.04120   Biso      1.000     C          0.052998  
         C25       1.0000    0.77690   0.07530   0.12570   Biso      1.000     C          0.538824  
         C26       1.0000    0.63940   0.53730   0.16510   Biso      1.000     C          -0.033073           
         C27       1.0000    0.72490   0.50700   0.04260   Biso      1.000     C          -0.062555           
         C28       1.0000    0.68810   0.46140   0.28020   Biso      1.000     C          0.571132  
         C29       1.0000    0.89410   0.77550   0.01290   Biso      1.000     C          -0.074389           
         C30       1.0000    0.99320   0.83850   0.92380   Biso      1.000     C          -0.059401           
         Eu1       1.0000    0.82491   0.30560   0.46566   Biso      1.000     Eu          1.360865  
         Eu2       1.0000    0.17509   0.69440   0.53434   Biso      1.000     Eu          1.360879  
         H1        1.0000    0.85400   0.67500   0.19400   Biso      1.000     H          0.127154  
         H2        1.0000    0.05800   0.70600   0.23400   Biso      1.000     H          0.09974   
         H3        1.0000    0.80400   0.43900   0.03700   Biso      1.000     H          0.117214  
         H4        1.0000    0.81100   0.77500   0.99400   Biso      1.000     H          0.116053  
         H5        1.0000    0.73900   0.56300   0.85300   Biso      1.000     H          0.138226  
         H6        1.0000    0.26100   0.43700   0.14700   Biso      1.000     H          0.138229  
         H7        1.0000    0.18900   0.22500   0.00600   Biso      1.000     H          0.116044  
         H8        1.0000    0.14600   0.32500   0.80600   Biso      1.000     H          0.127151  
         H9        1.0000    0.94200   0.29400   0.76600   Biso      1.000     H          0.099733  
         H10       1.0000    0.19600   0.56100   0.96300   Biso      1.000     H          0.117215  
         H11       1.0000    0.53200   0.71900   0.88400   Biso      1.000     H          0.113749  
         H12       1.0000    0.46800   0.28100   0.11600   Biso      1.000     H          0.113738  
         N1        1.0000    0.86870   0.19780   0.92500   Biso      1.000     N          -0.255259           
         N2        1.0000    0.52280   0.29510   0.92990   Biso      1.000     N          -0.258276           
         N3        1.0000    0.13130   0.80220   0.07500   Biso      1.000     N          -0.255252           
         N4        1.0000    0.47720   0.70490   0.07010   Biso      1.000     N          -0.258274           
         O1        1.0000    0.42338   0.60527   0.40142   Biso      1.000     O          -0.471833           
         O2        1.0000    0.89060   0.99368   0.77370   Biso      1.000     O          -0.539778           
         O3        1.0000    0.02730   0.80286   0.71130   Biso      1.000     O          -0.571168           
         O4        1.0000    0.21730   0.96620   0.76336   Biso      1.000     O          -0.391182           
         O5        1.0000    0.31440   0.93970   0.92607   Biso      1.000     O          -0.543356           
         O6        1.0000    0.75560   0.51110   0.33214   Biso      1.000     O          -0.529426           
         O7        1.0000    0.66910   0.34767   0.31273   Biso      1.000     O          -0.50126  
         O8        1.0000    0.29210   0.75919   0.29688   Biso      1.000     O          -0.580271           
         O9        1.0000    0.16210   0.53510   0.40385   Biso      1.000     O          -0.488955           
         O10       1.0000    0.95650   0.60726   0.61713   Biso      1.000     O          -0.484399           
         O11       1.0000    0.04350   0.39274   0.38287   Biso      1.000     O          -0.484373           
         O12       1.0000    0.24440   0.48890   0.66786   Biso      1.000     O          -0.529419           
         O13       1.0000    0.33090   0.65233   0.68727   Biso      1.000     O          -0.501282           
         O14       1.0000    0.57662   0.39473   0.59858   Biso      1.000     O          -0.471821           
         O15       1.0000    0.70790   0.24081   0.70312   Biso      1.000     O          -0.580282           
         O16       1.0000    0.10940   0.00632   0.22630   Biso      1.000     O          -0.539789           
         O17       1.0000    0.97270   0.19714   0.28870   Biso      1.000     O          -0.571183           
         O18       1.0000    0.78270   0.03380   0.23664   Biso      1.000     O          -0.391239           
         O19       1.0000    0.68560   0.06030   0.07393   Biso      1.000     O          -0.543375           
         O20       1.0000    0.83790   0.46490   0.59615   Biso      1.000     O          -0.488953           
         Zn1       1.0000    0.70787   0.13223   0.88350   Biso      1.000     Zn          0.847694  
         Zn2       1.0000    0.29213   0.86777   0.11650   Biso      1.000     Zn          0.84769 