
##########################################################################
#               Crystallographic Information Format file
#               Produced by PyCifRW module
#
#  This is a CIF file.  CIF has been adopted by the International
#  Union of Crystallography as the standard for data archiving and
#  transmission.
#
#  For information on this file format, follow the CIF links at
#  http://www.iucr.org
##########################################################################

data_image0

_cell_length_a                          9.943
_cell_length_b                          10.5668
_cell_length_c                          10.9169
_cell_angle_alpha                       80.596
_cell_angle_beta                        72.149
_cell_angle_gamma                       74.574
_symmetry_space_group_name_H-M          'P 1'
_symmetry_int_tables_number             1
loop_
  _symmetry_equiv_pos_as_xyz
         'x, y, z' 
loop_
  _atom_site_label
  _atom_site_occupancy
  _atom_site_fract_x
  _atom_site_fract_y
  _atom_site_fract_z
  _atom_site_thermal_displace_type
  _atom_site_B_iso_or_equiv
  _atom_site_type_symbol
  _atom_site_charge
         C1        1.0000    0.03510   0.24060   0.65930   Biso      1.000     C          0.098842  
         C2        1.0000    0.59600   0.83080   0.19840   Biso      1.000     C          0.561276  
         C3        1.0000    0.77490   0.57620   0.62630   Biso      1.000     C          0.552136  
         C4        1.0000    0.10730   0.72340   0.48710   Biso      1.000     C          -0.06635  
         C5        1.0000    0.88850   0.64870   0.54170   Biso      1.000     C          0.064907  
         C6        1.0000    0.00640   0.66150   0.57710   Biso      1.000     C          -0.064434           
         C7        1.0000    0.94030   0.02070   0.06230   Biso      1.000     C          0.5215489999999999  
         C8        1.0000    0.96490   0.75940   0.34070   Biso      1.000     C          0.098843  
         C9        1.0000    0.31300   0.92740   0.56330   Biso      1.000     C          -0.079443           
         C10       1.0000    0.91430   0.22610   0.63170   Biso      1.000     C          -0.095196           
         C11       1.0000    0.08570   0.77390   0.36830   Biso      1.000     C          -0.095197           
         C12       1.0000    0.89270   0.27660   0.51290   Biso      1.000     C          -0.06635  
         C13       1.0000    0.97200   0.38330   0.29100   Biso      1.000     C          0.690149  
         C14       1.0000    0.27350   0.99380   0.45550   Biso      1.000     C          -0.087251           
         C15       1.0000    0.11150   0.35130   0.45830   Biso      1.000     C          0.06490599999999999           
         C16       1.0000    0.99360   0.33850   0.42290   Biso      1.000     C          -0.064432           
         C17       1.0000    0.40400   0.16920   0.80160   Biso      1.000     C          0.561275  
         C18       1.0000    0.02800   0.61670   0.70900   Biso      1.000     C          0.69015   
         C19       1.0000    0.43750   0.82760   0.54590   Biso      1.000     C          0.09093899999999999           
         C20       1.0000    0.68820   0.96160   0.78250   Biso      1.000     C          0.606432  
         C21       1.0000    0.64020   0.03700   0.66730   Biso      1.000     C          -0.00921  
         C22       1.0000    0.22510   0.42380   0.37370   Biso      1.000     C          0.552138  
         C23       1.0000    0.56250   0.17240   0.45410   Biso      1.000     C          0.090943  
         C24       1.0000    0.51450   0.13570   0.67550   Biso      1.000     C          0.07423400000000001           
         C25       1.0000    0.68700   0.07260   0.43670   Biso      1.000     C          -0.079447           
         C26       1.0000    0.35980   0.96300   0.33270   Biso      1.000     C          -0.009212           
         C27       1.0000    0.72650   0.00620   0.54450   Biso      1.000     C          -0.087254           
         C28       1.0000    0.31180   0.03840   0.21750   Biso      1.000     C          0.606432  
         C29       1.0000    0.48550   0.86430   0.32450   Biso      1.000     C          0.07423400000000001           
         C30       1.0000    0.05970   0.97930   0.93770   Biso      1.000     C          0.5215489999999999  
         H1        1.0000    0.15300   0.81500   0.30800   Biso      1.000     H          0.127298  
         H2        1.0000    0.46600   0.78000   0.61500   Biso      1.000     H          0.113647  
         H3        1.0000    0.94800   0.79400   0.26400   Biso      1.000     H          0.091113  
         H4        1.0000    0.19300   0.72700   0.50600   Biso      1.000     H          0.111266  
         H5        1.0000    0.05200   0.20600   0.73600   Biso      1.000     H          0.091113  
         H6        1.0000    0.84700   0.18500   0.69200   Biso      1.000     H          0.127298  
         H7        1.0000    0.80700   0.27300   0.49400   Biso      1.000     H          0.111266  
         H8        1.0000    0.79900   0.94600   0.54000   Biso      1.000     H          0.127172  
         H9        1.0000    0.74100   0.06000   0.35300   Biso      1.000     H          0.136207  
         H10       1.0000    0.53400   0.22000   0.38500   Biso      1.000     H          0.113646  
         H11       1.0000    0.20100   0.05400   0.46000   Biso      1.000     H          0.127172  
         H12       1.0000    0.25900   0.94000   0.64700   Biso      1.000     H          0.136207  
         N1        1.0000    0.52210   0.79580   0.42880   Biso      1.000     N          -0.250254           
         N2        1.0000    0.86970   0.69730   0.42480   Biso      1.000     N          -0.260377           
         N3        1.0000    0.13030   0.30270   0.57520   Biso      1.000     N          -0.260377           
         N4        1.0000    0.47790   0.20420   0.57120   Biso      1.000     N          -0.250254           
         O1        1.0000    0.83800   0.96381   0.09647   Biso      1.000     O          -0.603388           
         O2        1.0000    0.70938   0.74100   0.20205   Biso      1.000     O          -0.6331439999999999           
         O3        1.0000    0.32960   0.15300   0.18548   Biso      1.000     O          -0.602888           
         O4        1.0000    0.24390   0.98912   0.16543   Biso      1.000     O          -0.6081479999999999           
         O5        1.0000    0.77980   0.53520   0.73786   Biso      1.000     O          -0.5197069999999999           
         O6        1.0000    0.97080   0.69923   0.78971   Biso      1.000     O          -0.6959960000000001           
         O7        1.0000    0.10740   0.50637   0.72832   Biso      1.000     O          -0.573852           
         O8        1.0000    0.57866   0.89450   0.09678   Biso      1.000     O          -0.5185270000000001           
         O9        1.0000    0.68390   0.56060   0.57401   Biso      1.000     O          -0.583703           
         O10       1.0000    0.16200   0.03619   0.90353   Biso      1.000     O          -0.603388           
         O11       1.0000    0.04290   0.89319   0.88162   Biso      1.000     O          -0.594964           
         O12       1.0000    0.95710   0.10681   0.11838   Biso      1.000     O          -0.594964           
         O13       1.0000    0.89260   0.49363   0.27168   Biso      1.000     O          -0.573853           
         O14       1.0000    0.02920   0.30077   0.21029   Biso      1.000     O          -0.6959960000000001           
         O15       1.0000    0.22020   0.46480   0.26214   Biso      1.000     O          -0.519706           
         O16       1.0000    0.31610   0.43940   0.42599   Biso      1.000     O          -0.583704           
         O17       1.0000    0.75610   0.01088   0.83457   Biso      1.000     O          -0.6081479999999999           
         O18       1.0000    0.67040   0.84700   0.81452   Biso      1.000     O          -0.602887           
         O19       1.0000    0.29062   0.25900   0.79795   Biso      1.000     O          -0.6331439999999999           
         O20       1.0000    0.42134   0.10550   0.90322   Biso      1.000     O          -0.5185270000000001           
         Tb1       1.0000    0.82563   0.80625   0.96591   Biso      1.000     Tb          2.0264130000000002  
         Tb2       1.0000    0.17437   0.19375   0.03409   Biso      1.000     Tb          2.0264159999999998  
         Zn1       1.0000    0.29172   0.36786   0.61719   Biso      1.000     Zn          0.853251  
         Zn2       1.0000    0.70828   0.63214   0.38281   Biso      1.000     Zn          0.85325 