
##########################################################################
#               Crystallographic Information Format file
#               Produced by PyCifRW module
#
#  This is a CIF file.  CIF has been adopted by the International
#  Union of Crystallography as the standard for data archiving and
#  transmission.
#
#  For information on this file format, follow the CIF links at
#  http://www.iucr.org
##########################################################################

data_image0

_cell_length_a                          10.013
_cell_length_b                          10.607
_cell_length_c                          10.993
_cell_angle_alpha                       80.746
_cell_angle_beta                        72.107
_cell_angle_gamma                       74.537
_symmetry_space_group_name_H-M          'P 1'
_symmetry_int_tables_number             1
loop_
  _symmetry_equiv_pos_as_xyz
         'x, y, z' 
loop_
  _atom_site_label
  _atom_site_occupancy
  _atom_site_fract_x
  _atom_site_fract_y
  _atom_site_fract_z
  _atom_site_thermal_displace_type
  _atom_site_B_iso_or_equiv
  _atom_site_type_symbol
  _atom_site_charge
         C1        1.0000    0.99380   0.83810   0.92250   Biso      1.000     C          -0.062768           
         C2        1.0000    0.68860   0.46170   0.28430   Biso      1.000     C          0.601617  
         C3        1.0000    0.97280   0.88290   0.78930   Biso      1.000     C          0.684995  
         C4        1.0000    0.68850   0.57150   0.93780   Biso      1.000     C          -0.090474           
         C5        1.0000    0.40280   0.66900   0.30290   Biso      1.000     C          0.55553   
         C6        1.0000    0.51480   0.63560   0.17670   Biso      1.000     C          0.077363  
         C7        1.0000    0.05920   0.47910   0.43730   Biso      1.000     C          0.517997  
         C8        1.0000    0.31140   0.53830   0.71570   Biso      1.000     C          0.601619  
         C9        1.0000    0.43700   0.32850   0.04500   Biso      1.000     C          0.082694  
         C10       1.0000    0.11180   0.85130   0.95800   Biso      1.000     C          0.063993  
         C11       1.0000    0.31150   0.42850   0.06220   Biso      1.000     C          -0.090468           
         C12       1.0000    0.91260   0.72770   0.13150   Biso      1.000     C          -0.086986           
         C13       1.0000    0.27170   0.49510   0.95370   Biso      1.000     C          -0.06389  
         C14       1.0000    0.35940   0.46320   0.83130   Biso      1.000     C          -0.01711  
         C15       1.0000    0.03380   0.74150   0.15960   Biso      1.000     C          0.079384  
         C16       1.0000    0.48520   0.36440   0.82330   Biso      1.000     C          0.07736   
         C17       1.0000    0.02720   0.11710   0.21070   Biso      1.000     C          0.684985  
         C18       1.0000    0.56300   0.67150   0.95500   Biso      1.000     C          0.082688  
         C19       1.0000    0.96620   0.25850   0.84040   Biso      1.000     C          0.079379  
         C20       1.0000    0.08740   0.27230   0.86850   Biso      1.000     C          -0.086988           
         C21       1.0000    0.89170   0.77720   0.01230   Biso      1.000     C          -0.070581           
         C22       1.0000    0.10830   0.22280   0.98770   Biso      1.000     C          -0.070581           
         C23       1.0000    0.00620   0.16190   0.07750   Biso      1.000     C          -0.06276  
         C24       1.0000    0.88820   0.14870   0.04200   Biso      1.000     C          0.063994  
         C25       1.0000    0.77320   0.07740   0.12710   Biso      1.000     C          0.548863  
         C26       1.0000    0.64060   0.53680   0.16870   Biso      1.000     C          -0.017106           
         C27       1.0000    0.72830   0.50490   0.04630   Biso      1.000     C          -0.063892           
         C28       1.0000    0.22680   0.92260   0.87290   Biso      1.000     C          0.548864  
         C29       1.0000    0.59720   0.33100   0.69710   Biso      1.000     C          0.555529  
         C30       1.0000    0.94080   0.52090   0.56270   Biso      1.000     C          0.518026  
         H1        1.0000    0.80800   0.77100   0.99200   Biso      1.000     H          0.114271  
         H2        1.0000    0.53800   0.71500   0.88600   Biso      1.000     H          0.122125  
         H3        1.0000    0.74700   0.54900   0.85000   Biso      1.000     H          0.138634  
         H4        1.0000    0.04600   0.71300   0.23700   Biso      1.000     H          0.098444  
         H5        1.0000    0.46200   0.28500   0.11400   Biso      1.000     H          0.122126  
         H6        1.0000    0.19200   0.57100   0.96200   Biso      1.000     H          0.118818  
         H7        1.0000    0.95400   0.28700   0.76300   Biso      1.000     H          0.098442  
         H8        1.0000    0.15400   0.31400   0.80100   Biso      1.000     H          0.128565  
         H9        1.0000    0.19200   0.22900   0.00800   Biso      1.000     H          0.11427   
         H10       1.0000    0.80800   0.42900   0.03800   Biso      1.000     H          0.118818  
         H11       1.0000    0.84600   0.68600   0.19900   Biso      1.000     H          0.128566  
         H12       1.0000    0.25300   0.45100   0.15000   Biso      1.000     H          0.138635  
         Ho1       1.0000    0.82633   0.30692   0.46628   Biso      1.000     Ho          2.02975   
         Ho2       1.0000    0.17367   0.69308   0.53373   Biso      1.000     Ho          2.029743  
         N1        1.0000    0.13020   0.80300   0.07510   Biso      1.000     N          -0.260351           
         N2        1.0000    0.52170   0.29700   0.92820   Biso      1.000     N          -0.248808           
         N3        1.0000    0.86980   0.19700   0.92490   Biso      1.000     N          -0.260355           
         N4        1.0000    0.47830   0.70300   0.07180   Biso      1.000     N          -0.248809           
         O1        1.0000    0.31680   0.93830   0.92550   Biso      1.000     O          -0.578374           
         O2        1.0000    0.22210   0.96380   0.76100   Biso      1.000     O          -0.518534           
         O3        1.0000    0.03040   0.79910   0.70890   Biso      1.000     O          -0.698409           
         O4        1.0000    0.89430   0.99320   0.76950   Biso      1.000     O          -0.567562           
         O5        1.0000    0.41950   0.60540   0.40480   Biso      1.000     O          -0.515191           
         O6        1.0000    0.67100   0.34610   0.31600   Biso      1.000     O          -0.602252           
         O7        1.0000    0.75630   0.51080   0.33680   Biso      1.000     O          -0.607337           
         O8        1.0000    0.28900   0.75860   0.29890   Biso      1.000     O          -0.632192           
         O9        1.0000    0.16200   0.53630   0.40300   Biso      1.000     O          -0.610826           
         O10       1.0000    0.95740   0.60660   0.61890   Biso      1.000     O          -0.589026           
         O11       1.0000    0.04260   0.39340   0.38110   Biso      1.000     O          -0.589014           
         O12       1.0000    0.24370   0.48920   0.66320   Biso      1.000     O          -0.607341           
         O13       1.0000    0.32900   0.65390   0.68400   Biso      1.000     O          -0.602238           
         O14       1.0000    0.58050   0.39460   0.59520   Biso      1.000     O          -0.515183           
         O15       1.0000    0.71100   0.24140   0.70110   Biso      1.000     O          -0.632185           
         O16       1.0000    0.10570   0.00680   0.23050   Biso      1.000     O          -0.567565           
         O17       1.0000    0.96960   0.20090   0.29110   Biso      1.000     O          -0.698397           
         O18       1.0000    0.77790   0.03620   0.23900   Biso      1.000     O          -0.518528           
         O19       1.0000    0.68320   0.06170   0.07450   Biso      1.000     O          -0.578375           
         O20       1.0000    0.83800   0.46370   0.59700   Biso      1.000     O          -0.610864           
         Zn1       1.0000    0.70883   0.13228   0.88229   Biso      1.000     Zn          0.857617  
         Zn2       1.0000    0.29117   0.86772   0.11771   Biso      1.000     Zn          0.857616 