
##########################################################################
#               Crystallographic Information Format file
#               Produced by PyCifRW module
#
#  This is a CIF file.  CIF has been adopted by the International
#  Union of Crystallography as the standard for data archiving and
#  transmission.
#
#  For information on this file format, follow the CIF links at
#  http://www.iucr.org
##########################################################################

data_image0

_cell_length_a                          16.86
_cell_length_b                          24.513
_cell_length_c                          11.92
_cell_angle_alpha                       90
_cell_angle_beta                        109.392
_cell_angle_gamma                       90
_symmetry_space_group_name_H-M          'P 1'
_symmetry_int_tables_number             1
loop_
  _symmetry_equiv_pos_as_xyz
         'x, y, z' 
loop_
  _atom_site_label
  _atom_site_occupancy
  _atom_site_fract_x
  _atom_site_fract_y
  _atom_site_fract_z
  _atom_site_thermal_displace_type
  _atom_site_B_iso_or_equiv
  _atom_site_type_symbol
  _atom_site_charge
         C1        1.0000    0.17830   0.17431   0.79350   Biso      1.000     C          0.580688  
         C2        1.0000    0.31470   0.74123   0.67310   Biso      1.000     C          -0.147766           
         C3        1.0000    0.39810   0.72887   0.68690   Biso      1.000     C          0.12980999999999998           
         C4        1.0000    0.46680   0.75179   0.78780   Biso      1.000     C          -0.138075           
         C5        1.0000    0.54790   0.74541   0.80870   Biso      1.000     C          -0.152167           
         C6        1.0000    0.66900   0.81393   0.09700   Biso      1.000     C          -0.11043299999999999          
         C7        1.0000    0.60310   0.79607   0.00070   Biso      1.000     C          -0.150344           
         C8        1.0000    0.61740   0.76641   0.91070   Biso      1.000     C          0.140051  
         C9        1.0000    0.69970   0.75631   0.91760   Biso      1.000     C          -0.146039           
         C10       1.0000    0.76640   0.77619   0.01310   Biso      1.000     C          -0.114628           
         C11       1.0000    0.75090   0.80500   0.10250   Biso      1.000     C          -0.04166  
         C12       1.0000    0.82170   0.82569   0.20650   Biso      1.000     C          0.580688  
         C13       1.0000    0.98710   0.76758   0.98600   Biso      1.000     C          0.15643900000000002           
         C14       1.0000    0.04750   0.75738   0.16850   Biso      1.000     C          0.155773  
         C15       1.0000    0.91980   0.50303   0.84390   Biso      1.000     C          0.13581300000000002           
         C16       1.0000    0.94970   0.49430   0.68850   Biso      1.000     C          0.13959100000000002           
         C17       1.0000    0.34860   0.82551   0.00930   Biso      1.000     C          -0.11606199999999998          
         C18       1.0000    0.26620   0.81414   0.99760   Biso      1.000     C          -0.02157  
         C19       1.0000    0.19640   0.83827   0.89660   Biso      1.000     C          0.577947  
         C20       1.0000    0.41320   0.80557   0.10440   Biso      1.000     C          -0.153321           
         C21       1.0000    0.24970   0.78054   0.08010   Biso      1.000     C          -0.114435           
         C22       1.0000    0.31470   0.75877   0.17310   Biso      1.000     C          -0.147765           
         C23       1.0000    0.39810   0.77113   0.18690   Biso      1.000     C          0.12980999999999998           
         C24       1.0000    0.46680   0.74821   0.28780   Biso      1.000     C          -0.138075           
         C25       1.0000    0.24970   0.71946   0.58010   Biso      1.000     C          -0.114436           
         C26       1.0000    0.41320   0.69443   0.60440   Biso      1.000     C          -0.15332300000000001          
         C27       1.0000    0.19640   0.66173   0.39660   Biso      1.000     C          0.577947  
         C28       1.0000    0.26620   0.68586   0.49760   Biso      1.000     C          -0.02157  
         C29       1.0000    0.95250   0.24262   0.83150   Biso      1.000     C          0.155773  
         C30       1.0000    0.08020   0.49697   0.15610   Biso      1.000     C          0.13581400000000002           
         C31       1.0000    0.05030   0.50570   0.31150   Biso      1.000     C          0.13959000000000002           
         C32       1.0000    0.65140   0.17449   0.99070   Biso      1.000     C          -0.11606199999999998          
         C33       1.0000    0.73380   0.18586   0.00240   Biso      1.000     C          -0.02157  
         C34       1.0000    0.80360   0.16173   0.10340   Biso      1.000     C          0.577947  
         C35       1.0000    0.58680   0.19443   0.89560   Biso      1.000     C          -0.153321           
         C36       1.0000    0.75030   0.21946   0.91990   Biso      1.000     C          -0.114435           
         C37       1.0000    0.68530   0.24123   0.82690   Biso      1.000     C          -0.147765           
         C38       1.0000    0.60190   0.22887   0.81310   Biso      1.000     C          0.12980999999999998           
         C39       1.0000    0.53320   0.25179   0.71220   Biso      1.000     C          -0.138075           
         C40       1.0000    0.54790   0.75459   0.30870   Biso      1.000     C          -0.152167           
         C41       1.0000    0.45210   0.24541   0.69130   Biso      1.000     C          -0.152167           
         C42       1.0000    0.39690   0.29607   0.49930   Biso      1.000     C          -0.150346           
         C43       1.0000    0.38260   0.26641   0.58930   Biso      1.000     C          0.140051  
         C44       1.0000    0.30030   0.25631   0.58240   Biso      1.000     C          -0.146039           
         C45       1.0000    0.23360   0.27619   0.48690   Biso      1.000     C          -0.11462699999999999          
         C46       1.0000    0.24910   0.30500   0.39750   Biso      1.000     C          -0.041663           
         C47       1.0000    0.17830   0.32569   0.29350   Biso      1.000     C          0.580688  
         C48       1.0000    0.98710   0.73242   0.48600   Biso      1.000     C          0.15643800000000002           
         C49       1.0000    0.04750   0.74262   0.66850   Biso      1.000     C          0.155774  
         C50       1.0000    0.91980   0.99697   0.34390   Biso      1.000     C          0.13581400000000002           
         C51       1.0000    0.94970   0.00570   0.18850   Biso      1.000     C          0.13959000000000002           
         C52       1.0000    0.34860   0.67449   0.50930   Biso      1.000     C          -0.116057           
         C53       1.0000    0.33100   0.31393   0.40300   Biso      1.000     C          -0.110428           
         C54       1.0000    0.66900   0.68607   0.59700   Biso      1.000     C          -0.11043299999999999          
         C55       1.0000    0.01290   0.23242   0.01400   Biso      1.000     C          0.15643900000000002           
         C56       1.0000    0.65140   0.32551   0.49070   Biso      1.000     C          -0.11606300000000001          
         C57       1.0000    0.75030   0.28054   0.41990   Biso      1.000     C          -0.11443800000000001          
         C58       1.0000    0.68530   0.25877   0.32690   Biso      1.000     C          -0.147764           
         C59       1.0000    0.60190   0.27113   0.31310   Biso      1.000     C          0.12980899999999998           
         C60       1.0000    0.73380   0.31414   0.50240   Biso      1.000     C          -0.021567           
         C61       1.0000    0.53320   0.24821   0.21220   Biso      1.000     C          -0.138075           
         C62       1.0000    0.01290   0.26758   0.51400   Biso      1.000     C          0.15643900000000002           
         C63       1.0000    0.45210   0.25459   0.19130   Biso      1.000     C          -0.152167           
         C64       1.0000    0.58680   0.30557   0.39560   Biso      1.000     C          -0.15332  
         C65       1.0000    0.95250   0.25738   0.33150   Biso      1.000     C          0.155773  
         C66       1.0000    0.39690   0.20393   0.99930   Biso      1.000     C          -0.150346           
         C67       1.0000    0.38260   0.23359   0.08930   Biso      1.000     C          0.140051  
         C68       1.0000    0.08020   0.00303   0.65610   Biso      1.000     C          0.13581400000000002           
         C69       1.0000    0.33100   0.18607   0.90300   Biso      1.000     C          -0.110431           
         C70       1.0000    0.30030   0.24369   0.08240   Biso      1.000     C          -0.14604  
         C71       1.0000    0.75090   0.69500   0.60250   Biso      1.000     C          -0.041665           
         C72       1.0000    0.61740   0.73359   0.41070   Biso      1.000     C          0.140048  
         C73       1.0000    0.80360   0.33827   0.60340   Biso      1.000     C          0.577947  
         C74       1.0000    0.76640   0.72381   0.51310   Biso      1.000     C          -0.114623           
         C75       1.0000    0.24910   0.19500   0.89750   Biso      1.000     C          -0.041665           
         C76       1.0000    0.60310   0.70393   0.50070   Biso      1.000     C          -0.150341           
         C77       1.0000    0.05030   0.99430   0.81150   Biso      1.000     C          0.13959000000000002           
         C78       1.0000    0.82170   0.67431   0.70650   Biso      1.000     C          0.580688  
         C79       1.0000    0.23360   0.22381   0.98690   Biso      1.000     C          -0.114623           
         C80       1.0000    0.69970   0.74369   0.41760   Biso      1.000     C          -0.146039           
         Cd1       1.0000    0.93377   0.12551   0.29091   Biso      1.000     Cd          0.48637299999999994           
         Cd2       1.0000    0.93377   0.37449   0.79091   Biso      1.000     Cd          0.48637299999999994           
         Cd3       1.0000    0.00662   0.12004   0.86633   Biso      1.000     Cd          0.41655299999999995           
         Cd4       1.0000    0.05252   0.13687   0.60016   Biso      1.000     Cd          0.345492  
         Cd5       1.0000    0.06623   0.87449   0.70909   Biso      1.000     Cd          0.486374  
         Cd6       1.0000    0.99338   0.62004   0.63367   Biso      1.000     Cd          0.416554  
         Cd7       1.0000    0.06623   0.62551   0.20909   Biso      1.000     Cd          0.48637299999999994           
         Cd8       1.0000    0.94748   0.63687   0.89984   Biso      1.000     Cd          0.345491  
         Cd9       1.0000    0.94748   0.86313   0.39984   Biso      1.000     Cd          0.345491  
         Cd10      1.0000    0.00662   0.37996   0.36633   Biso      1.000     Cd          0.41655299999999995           
         Cd11      1.0000    0.99338   0.87996   0.13367   Biso      1.000     Cd          0.41655299999999995           
         Cd12      1.0000    0.05252   0.36313   0.10016   Biso      1.000     Cd          0.345492  
         H1        1.0000    0.96050   0.02080   0.12340   Biso      1.000     H          0.081738  
         H2        1.0000    0.96220   0.71650   0.41170   Biso      1.000     H          0.105457  
         H3        1.0000    0.07360   0.73550   0.74900   Biso      1.000     H          0.102629  
         H4        1.0000    0.53170   0.31540   0.38670   Biso      1.000     H          0.109268  
         H5        1.0000    0.90530   0.00490   0.41090   Biso      1.000     H          0.09342   
         H6        1.0000    0.54820   0.69590   0.49620   Biso      1.000     H          0.11155899999999999           
         H7        1.0000    0.80560   0.27250   0.42700   Biso      1.000     H          0.108116  
         H8        1.0000    0.09470   0.50490   0.08910   Biso      1.000     H          0.09342   
         H9        1.0000    0.03950   0.52080   0.37660   Biso      1.000     H          0.081738  
         H10       1.0000    0.17850   0.23010   0.98380   Biso      1.000     H          0.105366  
         H11       1.0000    0.63940   0.15320   0.04760   Biso      1.000     H          0.115922  
         H12       1.0000    0.28940   0.26390   0.14170   Biso      1.000     H          0.116698  
         H13       1.0000    0.53170   0.18460   0.88670   Biso      1.000     H          0.109268  
         H14       1.0000    0.80560   0.22750   0.92700   Biso      1.000     H          0.108116  
         H15       1.0000    0.45180   0.19590   0.00380   Biso      1.000     H          0.11155899999999999           
         H16       1.0000    0.03780   0.21650   0.08830   Biso      1.000     H          0.105457  
         H17       1.0000    0.69730   0.26440   0.77280   Biso      1.000     H          0.118788  
         H18       1.0000    0.54880   0.27280   0.65800   Biso      1.000     H          0.109483  
         H19       1.0000    0.43700   0.22540   0.74730   Biso      1.000     H          0.10813199999999999           
         H20       1.0000    0.43700   0.27460   0.24730   Biso      1.000     H          0.10813199999999999           
         H21       1.0000    0.34190   0.33220   0.34120   Biso      1.000     H          0.11331400000000001           
         H22       1.0000    0.54880   0.22720   0.15800   Biso      1.000     H          0.109483  
         H23       1.0000    0.28940   0.23610   0.64170   Biso      1.000     H          0.116698  
         H24       1.0000    0.17850   0.26990   0.48380   Biso      1.000     H          0.105367  
         H25       1.0000    0.69730   0.23560   0.27280   Biso      1.000     H          0.118788  
         H26       1.0000    0.34190   0.16780   0.84120   Biso      1.000     H          0.11331400000000001           
         H27       1.0000    0.45180   0.30410   0.50380   Biso      1.000     H          0.11155899999999999           
         H28       1.0000    0.03950   0.97920   0.87660   Biso      1.000     H          0.081738  
         H29       1.0000    0.63940   0.34680   0.54760   Biso      1.000     H          0.115922  
         H30       1.0000    0.07360   0.76450   0.24900   Biso      1.000     H          0.102629  
         H31       1.0000    0.92640   0.23550   0.75100   Biso      1.000     H          0.102629  
         H32       1.0000    0.90530   0.49510   0.91090   Biso      1.000     H          0.09342   
         H33       1.0000    0.36060   0.65320   0.45240   Biso      1.000     H          0.11592100000000001           
         H34       1.0000    0.96050   0.47920   0.62340   Biso      1.000     H          0.081738  
         H35       1.0000    0.36060   0.84680   0.95240   Biso      1.000     H          0.115922  
         H36       1.0000    0.46830   0.81540   0.11330   Biso      1.000     H          0.109268  
         H37       1.0000    0.19440   0.77250   0.07300   Biso      1.000     H          0.108116  
         H38       1.0000    0.82150   0.76990   0.01620   Biso      1.000     H          0.105367  
         H39       1.0000    0.71060   0.73610   0.85830   Biso      1.000     H          0.116698  
         H40       1.0000    0.82150   0.73010   0.51620   Biso      1.000     H          0.105366  
         H41       1.0000    0.45120   0.72720   0.34200   Biso      1.000     H          0.109483  
         H42       1.0000    0.30270   0.73560   0.22720   Biso      1.000     H          0.118788  
         H43       1.0000    0.71060   0.76390   0.35830   Biso      1.000     H          0.116698  
         H44       1.0000    0.46830   0.68460   0.61330   Biso      1.000     H          0.109268  
         H45       1.0000    0.19440   0.72750   0.57300   Biso      1.000     H          0.108116  
         H46       1.0000    0.30270   0.76440   0.72720   Biso      1.000     H          0.118788  
         H47       1.0000    0.09470   0.99510   0.58910   Biso      1.000     H          0.09342   
         H48       1.0000    0.45120   0.77280   0.84200   Biso      1.000     H          0.109483  
         H49       1.0000    0.56300   0.77460   0.25270   Biso      1.000     H          0.10813199999999999           
         H50       1.0000    0.92640   0.26450   0.25100   Biso      1.000     H          0.102629  
         H51       1.0000    0.56300   0.72540   0.75270   Biso      1.000     H          0.10813199999999999           
         H52       1.0000    0.65810   0.83220   0.15880   Biso      1.000     H          0.11331400000000001           
         H53       1.0000    0.03780   0.28350   0.58830   Biso      1.000     H          0.105457  
         H54       1.0000    0.54820   0.80410   0.99620   Biso      1.000     H          0.11155899999999999           
         H55       1.0000    0.65810   0.66780   0.65880   Biso      1.000     H          0.11331400000000001           
         H56       1.0000    0.96220   0.78350   0.91170   Biso      1.000     H          0.105457  
         N1        1.0000    0.98098   0.20350   0.91310   Biso      1.000     N          -0.26105700000000004          
         N2        1.0000    0.98098   0.29650   0.41310   Biso      1.000     N          -0.26105700000000004          
         N3        1.0000    0.00525   0.21495   0.49710   Biso      1.000     N          -0.172548           
         N4        1.0000    0.96496   0.20822   0.37610   Biso      1.000     N          -0.186686           
         N5        1.0000    0.00525   0.28505   0.99710   Biso      1.000     N          -0.172548           
         N6        1.0000    0.01902   0.79650   0.08690   Biso      1.000     N          -0.26105700000000004          
         N7        1.0000    0.95445   0.54700   0.71200   Biso      1.000     N          -0.187349           
         N8        1.0000    0.93445   0.94766   0.31430   Biso      1.000     N          -0.159465           
         N9        1.0000    0.95445   0.95300   0.21200   Biso      1.000     N          -0.187341           
         N10       1.0000    0.92797   0.03507   0.26750   Biso      1.000     N          -0.27271  
         N11       1.0000    0.03504   0.79178   0.62390   Biso      1.000     N          -0.186691           
         N12       1.0000    0.99475   0.78505   0.50290   Biso      1.000     N          -0.172543           
         N13       1.0000    0.01902   0.70350   0.58690   Biso      1.000     N          -0.26105700000000004          
         N14       1.0000    0.06555   0.05234   0.68570   Biso      1.000     N          -0.159465           
         N15       1.0000    0.04555   0.04700   0.78800   Biso      1.000     N          -0.187341           
         N16       1.0000    0.07203   0.96493   0.73250   Biso      1.000     N          -0.27271  
         N17       1.0000    0.06555   0.44766   0.18570   Biso      1.000     N          -0.159465           
         N18       1.0000    0.04555   0.45300   0.28800   Biso      1.000     N          -0.187342           
         N19       1.0000    0.07203   0.53507   0.23250   Biso      1.000     N          -0.27271  
         N20       1.0000    0.96496   0.29178   0.87610   Biso      1.000     N          -0.186686           
         N21       1.0000    0.99475   0.71495   0.00290   Biso      1.000     N          -0.172548           
         N22       1.0000    0.03504   0.70822   0.12390   Biso      1.000     N          -0.186686           
         N23       1.0000    0.93445   0.55234   0.81430   Biso      1.000     N          -0.159457           
         N24       1.0000    0.92797   0.46493   0.76750   Biso      1.000     N          -0.27271  
         O1        1.0000    0.78988   0.14831   0.19550   Biso      1.000     O          -0.529163           
         O2        1.0000    0.87495   0.15601   0.09230   Biso      1.000     O          -0.571346           
         O3        1.0000    0.80721   0.66085   0.79910   Biso      1.000     O          -0.49242700000000006          
         O4        1.0000    0.89450   0.82842   0.19930   Biso      1.000     O          -0.52518  
         O5        1.0000    0.12505   0.65601   0.40770   Biso      1.000     O          -0.571346           
         O6        1.0000    0.21012   0.64831   0.30450   Biso      1.000     O          -0.529163           
         O7        1.0000    0.10550   0.32842   0.30070   Biso      1.000     O          -0.52518  
         O8        1.0000    0.89450   0.67158   0.69930   Biso      1.000     O          -0.52518  
         O9        1.0000    0.12505   0.84399   0.90770   Biso      1.000     O          -0.571346           
         O10       1.0000    0.21012   0.85169   0.80450   Biso      1.000     O          -0.529163           
         O11       1.0000    0.19279   0.16085   0.70090   Biso      1.000     O          -0.49242700000000006          
         O12       1.0000    0.10550   0.17158   0.80070   Biso      1.000     O          -0.52518  
         O13       1.0000    0.87495   0.34399   0.59230   Biso      1.000     O          -0.571346           
         O14       1.0000    0.78988   0.35169   0.69550   Biso      1.000     O          -0.529163           
         O15       1.0000    0.80721   0.83915   0.29910   Biso      1.000     O          -0.49242700000000006          
         O16       1.0000    0.19279   0.33915   0.20090   Biso      1.000     O          -0.49242700000000006 