
##########################################################################
#               Crystallographic Information Format file
#               Produced by PyCifRW module
#
#  This is a CIF file.  CIF has been adopted by the International
#  Union of Crystallography as the standard for data archiving and
#  transmission.
#
#  For information on this file format, follow the CIF links at
#  http://www.iucr.org
##########################################################################

data_image0

_cell_length_a                          12.4996
_cell_length_b                          17.7008
_cell_length_c                          22.3869
_cell_angle_alpha                       79.657
_cell_angle_beta                        80.452
_cell_angle_gamma                       81.326
_symmetry_space_group_name_H-M          'P 1'
_symmetry_int_tables_number             1
loop_
  _symmetry_equiv_pos_as_xyz
         'x, y, z' 
loop_
  _atom_site_label
  _atom_site_occupancy
  _atom_site_fract_x
  _atom_site_fract_y
  _atom_site_fract_z
  _atom_site_thermal_displace_type
  _atom_site_B_iso_or_equiv
  _atom_site_type_symbol
  _atom_site_charge
         C1        1.0000    0.27590   0.91530   0.90780   Biso      1.000     C          0.567578  
         C2        1.0000    0.65730   0.72950   0.22610   Biso      1.000     C          0.051157  
         C3        1.0000    0.70340   0.79260   0.19360   Biso      1.000     C          -0.10181  
         C4        1.0000    0.56230   0.70970   0.21130   Biso      1.000     C          -0.123849           
         C5        1.0000    0.51740   0.75850   0.16220   Biso      1.000     C          -0.078439           
         C6        1.0000    0.65870   0.84250   0.14550   Biso      1.000     C          -0.09060900000000001          
         C7        1.0000    0.56330   0.82400   0.12930   Biso      1.000     C          -0.017759999999999998         
         C8        1.0000    0.50330   0.87590   0.08130   Biso      1.000     C          0.664521  
         C9        1.0000    0.80850   0.33870   0.44490   Biso      1.000     C          0.5746020000000001  
         C10       1.0000    0.79280   0.28880   0.39830   Biso      1.000     C          -0.006528           
         C11       1.0000    0.80430   0.20820   0.41290   Biso      1.000     C          -0.08408600000000001          
         C12       1.0000    0.76690   0.32480   0.34200   Biso      1.000     C          -0.10782  
         C13       1.0000    0.79170   0.16230   0.37070   Biso      1.000     C          -0.115639           
         C14       1.0000    0.75450   0.27830   0.30010   Biso      1.000     C          -0.098674           
         C15       1.0000    0.76780   0.19770   0.31320   Biso      1.000     C          0.059435  
         C16       1.0000    0.75490   0.16130   0.26010   Biso      1.000     C          0.053974  
         C17       1.0000    0.76350   0.08250   0.25740   Biso      1.000     C          -0.115025           
         C18       1.0000    0.73560   0.21450   0.20780   Biso      1.000     C          -0.099738           
         C19       1.0000    0.71860   0.68760   0.27850   Biso      1.000     C          0.056285  
         C20       1.0000    0.72480   0.19330   0.15350   Biso      1.000     C          -0.09502200000000001          
         C21       1.0000    0.80990   0.72460   0.28190   Biso      1.000     C          -0.106116           
         C22       1.0000    0.76190   0.59490   0.36710   Biso      1.000     C          -0.078927           
         C23       1.0000    0.58480   0.91450   0.91070   Biso      1.000     C          0.667216  
         C24       1.0000    0.62290   0.85730   0.86550   Biso      1.000     C          -0.021817           
         C25       1.0000    0.55760   0.80110   0.86290   Biso      1.000     C          -0.081065           
         C26       1.0000    0.72160   0.85900   0.82860   Biso      1.000     C          -0.100439           
         C27       1.0000    0.58770   0.74760   0.82270   Biso      1.000     C          -0.114229           
         C28       1.0000    0.75060   0.80460   0.78780   Biso      1.000     C          -0.109011           
         C29       1.0000    0.68460   0.74910   0.78440   Biso      1.000     C          0.061203999999999995          
         C30       1.0000    0.73110   0.70010   0.73650   Biso      1.000     C          0.05556900000000001           
         C31       1.0000    0.68540   0.63950   0.72160   Biso      1.000     C          -0.11569000000000002          
         C32       1.0000    0.83220   0.71780   0.70570   Biso      1.000     C          -0.10248099999999999          
         C33       1.0000    0.74420   0.60030   0.67390   Biso      1.000     C          -0.09602999999999999          
         C34       1.0000    0.88940   0.68050   0.65790   Biso      1.000     C          -0.094555           
         C35       1.0000    0.84390   0.61980   0.64330   Biso      1.000     C          -0.025103999999999998         
         C36       1.0000    0.90410   0.57620   0.59190   Biso      1.000     C          0.68366   
         C37       1.0000    0.92230   0.60540   0.41800   Biso      1.000     C          0.668439  
         C38       1.0000    0.85260   0.63490   0.36970   Biso      1.000     C          -0.025855           
         C39       1.0000    0.87320   0.69970   0.32660   Biso      1.000     C          -0.07499299999999999          
         C40       1.0000    0.69410   0.62200   0.32020   Biso      1.000     C          -0.130741           
         C41       1.0000    0.75100   0.05960   0.20340   Biso      1.000     C          -0.079361           
         C42       1.0000    0.73440   0.11470   0.15080   Biso      1.000     C          -0.00288  
         C43       1.0000    0.72410   0.08470   0.09220   Biso      1.000     C          0.567578  
         C44       1.0000    0.12680   0.30030   0.67340   Biso      1.000     C          -0.075014           
         C45       1.0000    0.14740   0.36510   0.63030   Biso      1.000     C          -0.025851999999999997         
         C46       1.0000    0.07770   0.39460   0.58200   Biso      1.000     C          0.668439  
         C47       1.0000    0.09590   0.42380   0.40810   Biso      1.000     C          0.68366   
         C48       1.0000    0.15610   0.38020   0.35670   Biso      1.000     C          -0.025108000000000002         
         C49       1.0000    0.11060   0.31950   0.34210   Biso      1.000     C          -0.094554           
         C50       1.0000    0.25580   0.39970   0.32610   Biso      1.000     C          -0.096026           
         C51       1.0000    0.16780   0.28220   0.29430   Biso      1.000     C          -0.10248099999999999          
         C52       1.0000    0.31460   0.36050   0.27840   Biso      1.000     C          -0.115691           
         C53       1.0000    0.26890   0.29990   0.26350   Biso      1.000     C          0.05557   
         C54       1.0000    0.31540   0.25090   0.21560   Biso      1.000     C          0.061198  
         C55       1.0000    0.24940   0.19540   0.21220   Biso      1.000     C          -0.10901  
         C56       1.0000    0.41230   0.25240   0.17730   Biso      1.000     C          -0.114224           
         C57       1.0000    0.27840   0.14100   0.17140   Biso      1.000     C          -0.100445           
         C58       1.0000    0.44240   0.19890   0.13710   Biso      1.000     C          -0.081063           
         C59       1.0000    0.37710   0.14270   0.13450   Biso      1.000     C          -0.021812           
         C60       1.0000    0.41520   0.08550   0.08930   Biso      1.000     C          0.667216  
         C61       1.0000    0.23810   0.40510   0.63290   Biso      1.000     C          -0.078928           
         C62       1.0000    0.30590   0.37800   0.67980   Biso      1.000     C          -0.13074000000000002          
         C63       1.0000    0.19010   0.27540   0.71810   Biso      1.000     C          -0.10609500000000001          
         C64       1.0000    0.28140   0.31240   0.72150   Biso      1.000     C          0.056282000000000006          
         C65       1.0000    0.27520   0.80670   0.84650   Biso      1.000     C          -0.095029           
         C66       1.0000    0.26440   0.78550   0.79220   Biso      1.000     C          -0.099731           
         C67       1.0000    0.23650   0.91750   0.74260   Biso      1.000     C          -0.115025           
         C68       1.0000    0.24510   0.83870   0.73990   Biso      1.000     C          0.053973  
         C69       1.0000    0.23220   0.80230   0.68680   Biso      1.000     C          0.05943300000000001           
         C70       1.0000    0.24550   0.72170   0.69990   Biso      1.000     C          -0.098673           
         C71       1.0000    0.20830   0.83770   0.62930   Biso      1.000     C          -0.11563599999999999          
         C72       1.0000    0.23310   0.67520   0.65800   Biso      1.000     C          -0.107826           
         C73       1.0000    0.24900   0.94040   0.79660   Biso      1.000     C          -0.079361           
         C74       1.0000    0.19570   0.79180   0.58710   Biso      1.000     C          -0.084087           
         C75       1.0000    0.19150   0.66130   0.55510   Biso      1.000     C          0.5746020000000001  
         C76       1.0000    0.49670   0.12410   0.91870   Biso      1.000     C          0.66452   
         C77       1.0000    0.43670   0.17600   0.87070   Biso      1.000     C          -0.017759999999999998         
         C78       1.0000    0.34130   0.15750   0.85450   Biso      1.000     C          -0.09060800000000001          
         C79       1.0000    0.48260   0.24150   0.83780   Biso      1.000     C          -0.078439           
         C80       1.0000    0.43770   0.29030   0.78870   Biso      1.000     C          -0.123849           
         C81       1.0000    0.29660   0.20740   0.80640   Biso      1.000     C          -0.101815           
         C82       1.0000    0.34270   0.27050   0.77390   Biso      1.000     C          0.051162  
         C83       1.0000    0.20720   0.71120   0.60170   Biso      1.000     C          -0.006523           
         C84       1.0000    0.26560   0.88530   0.84920   Biso      1.000     C          -0.00288  
         Dy1       1.0000    0.65337   0.02921   0.99792   Biso      1.000     Dy          2.0771319999999998  
         Dy2       1.0000    0.87118   0.42990   0.51805   Biso      1.000     Dy          2.073345  
         Dy3       1.0000    0.34663   0.97079   0.00208   Biso      1.000     Dy          2.0771319999999998  
         Dy4       1.0000    0.12882   0.57010   0.48195   Biso      1.000     Dy          2.073345  
         H1        1.0000    0.50840   0.20070   0.11100   Biso      1.000     H          0.122074  
         H2        1.0000    0.71470   0.56040   0.66300   Biso      1.000     H          0.11381199999999998           
         H3        1.0000    0.95520   0.69540   0.63660   Biso      1.000     H          0.135598  
         H4        1.0000    0.93110   0.72610   0.32850   Biso      1.000     H          0.13886400000000002           
         H5        1.0000    0.74740   0.55140   0.39590   Biso      1.000     H          0.12122100000000001           
         H6        1.0000    0.63550   0.59660   0.31760   Biso      1.000     H          0.131497  
         H7        1.0000    0.53030   0.66670   0.23260   Biso      1.000     H          0.131497  
         H8        1.0000    0.82060   0.18480   0.45150   Biso      1.000     H          0.13111099999999998           
         H9        1.0000    0.61870   0.62540   0.74230   Biso      1.000     H          0.13680599999999998           
         H10       1.0000    0.75800   0.37850   0.33210   Biso      1.000     H          0.137949  
         H11       1.0000    0.79930   0.10860   0.38100   Biso      1.000     H          0.12901700000000002           
         H12       1.0000    0.77740   0.04580   0.29150   Biso      1.000     H          0.130717  
         H13       1.0000    0.71160   0.23020   0.11950   Biso      1.000     H          0.143966  
         H14       1.0000    0.75360   0.00730   0.20170   Biso      1.000     H          0.126601  
         H15       1.0000    0.45420   0.74660   0.15110   Biso      1.000     H          0.128682  
         H16       1.0000    0.54200   0.71100   0.82200   Biso      1.000     H          0.128212  
         H17       1.0000    0.69070   0.88590   0.12530   Biso      1.000     H          0.137551  
         H18       1.0000    0.49160   0.79930   0.88900   Biso      1.000     H          0.122074  
         H19       1.0000    0.76800   0.89470   0.83020   Biso      1.000     H          0.13651   
         H20       1.0000    0.23200   0.10530   0.16980   Biso      1.000     H          0.136511  
         H21       1.0000    0.45800   0.28900   0.17800   Biso      1.000     H          0.128212  
         H22       1.0000    0.38130   0.37460   0.25770   Biso      1.000     H          0.13680599999999998           
         H23       1.0000    0.28530   0.43960   0.33700   Biso      1.000     H          0.113811  
         H24       1.0000    0.04480   0.30460   0.36340   Biso      1.000     H          0.135598  
         H25       1.0000    0.25260   0.44860   0.60410   Biso      1.000     H          0.12122100000000001           
         H26       1.0000    0.36450   0.40340   0.68240   Biso      1.000     H          0.131497  
         H27       1.0000    0.46970   0.33330   0.76740   Biso      1.000     H          0.131497  
         H28       1.0000    0.06890   0.27390   0.67150   Biso      1.000     H          0.13886500000000002           
         H29       1.0000    0.54580   0.25340   0.84890   Biso      1.000     H          0.128682  
         H30       1.0000    0.28840   0.76980   0.88050   Biso      1.000     H          0.143967  
         H31       1.0000    0.22260   0.95420   0.70850   Biso      1.000     H          0.130717  
         H32       1.0000    0.20070   0.89140   0.61900   Biso      1.000     H          0.12901700000000002           
         H33       1.0000    0.24640   0.99270   0.79830   Biso      1.000     H          0.126601  
         H34       1.0000    0.17940   0.81520   0.54850   Biso      1.000     H          0.13111099999999998           
         H35       1.0000    0.30930   0.11410   0.87470   Biso      1.000     H          0.137551  
         H36       1.0000    0.24200   0.62150   0.66790   Biso      1.000     H          0.137949  
         O1        1.0000    0.39420   0.65540   0.77240   Biso      1.000     O          -0.543442           
         O2        1.0000    0.96630   0.76750   0.76780   Biso      1.000     O          -0.507221           
         O3        1.0000    0.49060   0.90780   0.94100   Biso      1.000     O          -0.643351           
         O4        1.0000    0.28710   0.98530   0.90400   Biso      1.000     O          -0.647814           
         O5        1.0000    0.27690   0.86670   0.95900   Biso      1.000     O          -0.645893           
         O6        1.0000    0.15880   0.69610   0.50510   Biso      1.000     O          -0.65447  
         O7        1.0000    0.20690   0.59000   0.56990   Biso      1.000     O          -0.64747  
         O8        1.0000    0.20040   0.64430   0.81500   Biso      1.000     O          -0.494659           
         O9        1.0000    0.44960   0.06740   0.94940   Biso      1.000     O          -0.762649           
         O10       1.0000    0.12080   0.13690   0.31100   Biso      1.000     O          -0.5131439999999999           
         O11       1.0000    0.09670   0.45500   0.54340   Biso      1.000     O          -0.7501720000000001           
         O12       1.0000    0.99840   0.35770   0.58110   Biso      1.000     O          -0.635201           
         O13       1.0000    0.20010   0.12530   0.74950   Biso      1.000     O          -0.49500200000000005          
         O14       1.0000    0.07910   0.20390   0.81890   Biso      1.000     O          -0.516694           
         O15       1.0000    0.01940   0.39500   0.44200   Biso      1.000     O          -0.614301           
         O16       1.0000    0.13210   0.48630   0.41030   Biso      1.000     O          -0.7395430000000001           
         O17       1.0000    0.35120   0.03890   0.08470   Biso      1.000     O          -0.698421           
         O18       1.0000    0.87920   0.86310   0.68900   Biso      1.000     O          -0.5131439999999999           
         O19       1.0000    0.58810   0.13610   0.92680   Biso      1.000     O          -0.6071810000000001           
         O20       1.0000    0.64880   0.96110   0.91530   Biso      1.000     O          -0.698422           
         O21       1.0000    0.50940   0.09220   0.05900   Biso      1.000     O          -0.643351           
         O22       1.0000    0.98060   0.60500   0.55800   Biso      1.000     O          -0.614301           
         O23       1.0000    0.03370   0.23250   0.23220   Biso      1.000     O          -0.507221           
         O24       1.0000    0.71290   0.01470   0.09600   Biso      1.000     O          -0.647814           
         O25       1.0000    0.72310   0.13330   0.04100   Biso      1.000     O          -0.645893           
         O26       1.0000    0.86790   0.51370   0.58970   Biso      1.000     O          -0.739542           
         O27       1.0000    0.79310   0.41000   0.43010   Biso      1.000     O          -0.647471           
         O28       1.0000    0.79960   0.35570   0.18500   Biso      1.000     O          -0.494659           
         O29       1.0000    0.84120   0.30390   0.49490   Biso      1.000     O          -0.65447  
         O30       1.0000    0.55040   0.93260   0.05060   Biso      1.000     O          -0.762649           
         O31       1.0000    0.41190   0.86390   0.07320   Biso      1.000     O          -0.6071810000000001           
         O32       1.0000    0.90330   0.54500   0.45660   Biso      1.000     O          -0.7501720000000001           
         O33       1.0000    0.00160   0.64230   0.41890   Biso      1.000     O          -0.635202           
         O34       1.0000    0.79990   0.87470   0.25050   Biso      1.000     O          -0.49500200000000005          
         O35       1.0000    0.92090   0.79610   0.18110   Biso      1.000     O          -0.516694           
         O36       1.0000    0.60580   0.34460   0.22760   Biso      1.000     O          -0.543442           
         S1        1.0000    0.12630   0.20480   0.26520   Biso      1.000     S          0.9738389999999999  
         S2        1.0000    0.17930   0.19360   0.77600   Biso      1.000     S          0.989798  
         S3        1.0000    0.28000   0.68940   0.77559   Biso      1.000     S          0.9714799999999999  
         S4        1.0000    0.87370   0.79520   0.73480   Biso      1.000     S          0.9738389999999999  
         S5        1.0000    0.72000   0.31060   0.22441   Biso      1.000     S          0.9714809999999999  
         S6        1.0000    0.82070   0.80640   0.22400   Biso      1.000     S          0.989799 