
##########################################################################
#               Crystallographic Information Format file
#               Produced by PyCifRW module
#
#  This is a CIF file.  CIF has been adopted by the International
#  Union of Crystallography as the standard for data archiving and
#  transmission.
#
#  For information on this file format, follow the CIF links at
#  http://www.iucr.org
##########################################################################

data_image0

_cell_length_a                          9.5591
_cell_length_b                          9.782
_cell_length_c                          18.288
_cell_angle_alpha                       78.75
_cell_angle_beta                        86.28
_cell_angle_gamma                       68.73
_symmetry_space_group_name_H-M          'P 1'
_symmetry_int_tables_number             1
loop_
  _symmetry_equiv_pos_as_xyz
         'x, y, z' 
loop_
  _atom_site_label
  _atom_site_occupancy
  _atom_site_fract_x
  _atom_site_fract_y
  _atom_site_fract_z
  _atom_site_thermal_displace_type
  _atom_site_B_iso_or_equiv
  _atom_site_type_symbol
  _atom_site_charge
         C1        1.0000    0.19280   0.32000   0.86900   Biso      1.000     C          0.08340800000000001           
         C2        1.0000    0.38000   0.82070   0.03380   Biso      1.000     C          0.602494  
         C3        1.0000    0.57130   0.81610   0.93500   Biso      1.000     C          -0.099761           
         C4        1.0000    0.70640   0.74170   0.90010   Biso      1.000     C          -0.075778           
         C5        1.0000    0.78370   0.59390   0.92640   Biso      1.000     C          -0.11500899999999999          
         C6        1.0000    0.73940   0.51400   0.98820   Biso      1.000     C          -0.00828  
         C7        1.0000    0.60580   0.58880   0.02460   Biso      1.000     C          -0.122696           
         C8        1.0000    0.52650   0.73630   0.99730   Biso      1.000     C          -0.009967           
         C9        1.0000    0.26810   0.37160   0.80670   Biso      1.000     C          -0.191184           
         C10       1.0000    0.26260   0.09140   0.83250   Biso      1.000     C          0.092987  
         C11       1.0000    0.33380   0.13540   0.77170   Biso      1.000     C          -0.187435           
         C12       1.0000    0.35810   0.26320   0.76300   Biso      1.000     C          0.166546  
         C13       1.0000    0.83040   0.35430   0.01780   Biso      1.000     C          0.57416   
         C14       1.0000    0.95020   0.16600   0.70650   Biso      1.000     C          0.087023  
         C15       1.0000    0.99180   0.39260   0.63270   Biso      1.000     C          0.159025  
         C16       1.0000    0.92840   0.44700   0.69730   Biso      1.000     C          -0.15789  
         C17       1.0000    0.86930   0.36860   0.76040   Biso      1.000     C          0.077964  
         C18       1.0000    0.02540   0.48220   0.56130   Biso      1.000     C          -0.102805           
         C19       1.0000    0.89890   0.57600   0.49910   Biso      1.000     C          -0.041089999999999995         
         C20       1.0000    0.75300   0.53500   0.51430   Biso      1.000     C          0.047992  
         C21       1.0000    0.73000   0.40290   0.51380   Biso      1.000     C          -0.14444500000000002          
         C22       1.0000    0.63290   0.35940   0.56480   Biso      1.000     C          -0.133215           
         C23       1.0000    0.55890   0.44810   0.61640   Biso      1.000     C          0.12116500000000001           
         C24       1.0000    0.58190   0.58030   0.61700   Biso      1.000     C          -0.142836           
         C25       1.0000    0.67900   0.62370   0.56590   Biso      1.000     C          -0.15046700000000002          
         C26       1.0000    0.00470   0.24800   0.64390   Biso      1.000     C          -0.194375           
         C27       1.0000    0.49550   0.40900   0.68580   Biso      1.000     C          -0.125118           
         C28       1.0000    0.04980   0.83400   0.29350   Biso      1.000     C          0.087023  
         C29       1.0000    0.00820   0.60740   0.36730   Biso      1.000     C          0.159025  
         C30       1.0000    0.16960   0.64570   0.98220   Biso      1.000     C          0.574159  
         C31       1.0000    0.62000   0.17930   0.96620   Biso      1.000     C          0.602494  
         C32       1.0000    0.42870   0.18390   0.06500   Biso      1.000     C          -0.099761           
         C33       1.0000    0.29360   0.25830   0.09990   Biso      1.000     C          -0.075778           
         C34       1.0000    0.21630   0.40610   0.07360   Biso      1.000     C          -0.11500899999999999          
         C35       1.0000    0.26060   0.48600   0.01180   Biso      1.000     C          -0.00828  
         C36       1.0000    0.39420   0.41120   0.97540   Biso      1.000     C          -0.122696           
         C37       1.0000    0.47350   0.26370   0.00270   Biso      1.000     C          -0.009967           
         C38       1.0000    0.73190   0.62840   0.19330   Biso      1.000     C          -0.191184           
         C39       1.0000    0.80720   0.68000   0.13100   Biso      1.000     C          0.08340800000000001           
         C40       1.0000    0.73740   0.90860   0.16750   Biso      1.000     C          0.092987  
         C41       1.0000    0.66620   0.86460   0.22830   Biso      1.000     C          -0.187435           
         C42       1.0000    0.99530   0.75200   0.35610   Biso      1.000     C          -0.194376           
         C43       1.0000    0.64190   0.73680   0.23700   Biso      1.000     C          0.166546  
         C44       1.0000    0.50450   0.59100   0.31420   Biso      1.000     C          -0.125118           
         C45       1.0000    0.32100   0.37630   0.43410   Biso      1.000     C          -0.150471           
         C46       1.0000    0.41810   0.41970   0.38300   Biso      1.000     C          -0.142834           
         C47       1.0000    0.44110   0.55190   0.38360   Biso      1.000     C          0.12116400000000001           
         C48       1.0000    0.36710   0.64060   0.43520   Biso      1.000     C          -0.133215           
         C49       1.0000    0.27000   0.59710   0.48620   Biso      1.000     C          -0.14444500000000002          
         C50       1.0000    0.24700   0.46500   0.48570   Biso      1.000     C          0.047994999999999996          
         C51       1.0000    0.10110   0.42400   0.50090   Biso      1.000     C          -0.041087           
         C52       1.0000    0.97460   0.51780   0.43870   Biso      1.000     C          -0.102802           
         C53       1.0000    0.13070   0.63140   0.23960   Biso      1.000     C          0.077964  
         C54       1.0000    0.07160   0.55300   0.30270   Biso      1.000     C          -0.157889           
         C55       1.0000    0.54000   0.70150   0.30140   Biso      1.000     C          -0.145206           
         C56       1.0000    0.46000   0.29850   0.69860   Biso      1.000     C          -0.145206           
         H1        1.0000    0.98620   0.88807   0.93628   Biso      1.000     H          0.341587  
         H2        1.0000    0.01380   0.11193   0.06372   Biso      1.000     H          0.341587  
         H3        1.0000    0.12910   0.45550   0.09870   Biso      1.000     H          0.117569  
         H4        1.0000    0.25970   0.47220   0.79430   Biso      1.000     H          0.146427  
         H5        1.0000    0.14220   0.38530   0.90160   Biso      1.000     H          0.10413399999999999           
         H6        1.0000    0.26170   0.99380   0.84050   Biso      1.000     H          0.10756600000000001           
         H7        1.0000    0.36660   0.07530   0.73510   Biso      1.000     H          0.133169  
         H8        1.0000    0.49740   0.22920   0.66650   Biso      1.000     H          0.117433  
         H9        1.0000    0.48070   0.46840   0.72230   Biso      1.000     H          0.12731199999999998           
         H10       1.0000    0.69460   0.71310   0.56630   Biso      1.000     H          0.115533  
         H11       1.0000    0.57210   0.53790   0.06680   Biso      1.000     H          0.12411900000000001           
         H12       1.0000    0.53190   0.64030   0.65190   Biso      1.000     H          0.124574  
         H13       1.0000    0.78000   0.34290   0.47890   Biso      1.000     H          0.110778  
         H14       1.0000    0.48630   0.08350   0.08340   Biso      1.000     H          0.124037  
         H15       1.0000    0.07130   0.55030   0.57440   Biso      1.000     H          0.09676699999999999           
         H16       1.0000    0.82100   0.41840   0.79920   Biso      1.000     H          0.11616099999999999           
         H17       1.0000    0.92340   0.54360   0.70020   Biso      1.000     H          0.126622  
         H18       1.0000    0.05490   0.19430   0.60670   Biso      1.000     H          0.107096  
         H19       1.0000    0.96370   0.06610   0.70590   Biso      1.000     H          0.10338399999999999           
         H20       1.0000    0.61740   0.27000   0.56440   Biso      1.000     H          0.114544  
         H21       1.0000    0.87090   0.54450   0.90130   Biso      1.000     H          0.117569  
         H22       1.0000    0.87630   0.68430   0.49280   Biso      1.000     H          0.088412  
         H23       1.0000    0.03630   0.93390   0.29410   Biso      1.000     H          0.10338399999999999           
         H24       1.0000    0.51370   0.91650   0.91660   Biso      1.000     H          0.124037  
         H25       1.0000    0.42790   0.46210   0.93320   Biso      1.000     H          0.12411900000000001           
         H26       1.0000    0.74030   0.52780   0.20570   Biso      1.000     H          0.146427  
         H27       1.0000    0.73830   0.00620   0.15950   Biso      1.000     H          0.10756600000000001           
         H28       1.0000    0.63340   0.92470   0.26490   Biso      1.000     H          0.133169  
         H29       1.0000    0.50260   0.77080   0.33350   Biso      1.000     H          0.117433  
         H30       1.0000    0.51930   0.53160   0.27770   Biso      1.000     H          0.12731199999999998           
         H31       1.0000    0.30540   0.28690   0.43370   Biso      1.000     H          0.115534  
         H32       1.0000    0.85780   0.61470   0.09840   Biso      1.000     H          0.10413399999999999           
         H33       1.0000    0.38260   0.73000   0.43560   Biso      1.000     H          0.114543  
         H34       1.0000    0.22000   0.65710   0.52110   Biso      1.000     H          0.110779  
         H35       1.0000    0.12370   0.31570   0.50720   Biso      1.000     H          0.088413  
         H36       1.0000    0.92870   0.44970   0.42560   Biso      1.000     H          0.09676699999999999           
         H37       1.0000    0.17900   0.58160   0.20080   Biso      1.000     H          0.11616099999999999           
         H38       1.0000    0.07660   0.45640   0.29980   Biso      1.000     H          0.126622  
         H39       1.0000    0.46810   0.35970   0.34810   Biso      1.000     H          0.124573  
         H40       1.0000    0.94510   0.80570   0.39330   Biso      1.000     H          0.107098  
         N1        1.0000    0.80840   0.82140   0.11680   Biso      1.000     N          -0.23392600000000002          
         N2        1.0000    0.11680   0.77630   0.23620   Biso      1.000     N          -0.21498499999999998          
         N3        1.0000    0.19160   0.17860   0.88320   Biso      1.000     N          -0.23392600000000002          
         N4        1.0000    0.88320   0.22370   0.76380   Biso      1.000     N          -0.214984           
         O1        1.0000    0.67170   0.81440   0.75770   Biso      1.000     O          -0.613544           
         O2        1.0000    0.98620   0.99230   0.92540   Biso      1.000     O          -0.8411129999999999           
         O3        1.0000    0.69130   0.04570   0.99360   Biso      1.000     O          -0.565821           
         O4        1.0000    0.65940   0.24760   0.90390   Biso      1.000     O          -0.560489           
         O5        1.0000    0.71860   0.99050   0.81910   Biso      1.000     O          -0.636408           
         O6        1.0000    0.92090   0.75840   0.80730   Biso      1.000     O          -0.621163           
         O7        1.0000    0.95240   0.29900   0.97880   Biso      1.000     O          -0.626062           
         O8        1.0000    0.07910   0.24160   0.19270   Biso      1.000     O          -0.621163           
         O9        1.0000    0.34060   0.75240   0.09610   Biso      1.000     O          -0.560489           
         O10       1.0000    0.30870   0.95430   0.00640   Biso      1.000     O          -0.565821           
         O11       1.0000    0.28140   0.00950   0.18090   Biso      1.000     O          -0.636408           
         O12       1.0000    0.32830   0.18560   0.24230   Biso      1.000     O          -0.613544           
         O13       1.0000    0.20730   0.72050   0.92730   Biso      1.000     O          -0.512239           
         O14       1.0000    0.01380   0.00770   0.07460   Biso      1.000     O          -0.8411139999999999           
         O15       1.0000    0.79270   0.27950   0.07270   Biso      1.000     O          -0.512239           
         O16       1.0000    0.04760   0.70100   0.02120   Biso      1.000     O          -0.626062           
         S1        1.0000    0.24060   0.16960   0.18560   Biso      1.000     S          1.186798  
         S2        1.0000    0.75940   0.83040   0.81440   Biso      1.000     S          1.186798  
         Zn1       1.0000    0.18201   0.88960   0.14695   Biso      1.000     Zn          0.8966360000000001  
         Zn2       1.0000    0.90597   0.90400   0.02566   Biso      1.000     Zn          0.9298799999999999  
         Zn3       1.0000    0.81799   0.11040   0.85305   Biso      1.000     Zn          0.8966350000000001  
         Zn4       1.0000    0.09403   0.09600   0.97434   Biso      1.000     Zn          0.9298790000000001 