
##########################################################################
#               Crystallographic Information Format file
#               Produced by PyCifRW module
#
#  This is a CIF file.  CIF has been adopted by the International
#  Union of Crystallography as the standard for data archiving and
#  transmission.
#
#  For information on this file format, follow the CIF links at
#  http://www.iucr.org
##########################################################################

data_image0

_cell_length_a                          18.465
_cell_length_b                          9.2442
_cell_length_c                          19.699
_cell_angle_alpha                       90
_cell_angle_beta                        102.18
_cell_angle_gamma                       90
_symmetry_space_group_name_H-M          'P 1'
_symmetry_int_tables_number             1
loop_
  _symmetry_equiv_pos_as_xyz
         'x, y, z' 
loop_
  _atom_site_label
  _atom_site_occupancy
  _atom_site_fract_x
  _atom_site_fract_y
  _atom_site_fract_z
  _atom_site_thermal_displace_type
  _atom_site_B_iso_or_equiv
  _atom_site_type_symbol
  _atom_site_charge
         C1        1.0000    0.75130   0.77250   0.41380   Biso      1.000     C          -0.184435           
         C2        1.0000    0.65860   0.09420   0.93610   Biso      1.000     C          0.067892  
         C3        1.0000    0.99830   0.04860   0.19470   Biso      1.000     C          0.085767  
         C4        1.0000    0.67410   0.77630   0.40950   Biso      1.000     C          -0.168719           
         C5        1.0000    0.74870   0.72750   0.58620   Biso      1.000     C          -0.184435           
         C6        1.0000    0.59020   0.03020   0.94850   Biso      1.000     C          0.647712  
         C7        1.0000    0.99170   0.98280   0.12620   Biso      1.000     C          0.631664  
         C8        1.0000    0.77890   0.90090   0.44250   Biso      1.000     C          0.079287  
         C9        1.0000    0.99910   0.18920   0.21370   Biso      1.000     C          -0.18403599999999998          
         C10       1.0000    0.49170   0.51720   0.62620   Biso      1.000     C          0.631663  
         C11       1.0000    0.22110   0.09910   0.55750   Biso      1.000     C          0.079283  
         C12       1.0000    0.25130   0.72750   0.91380   Biso      1.000     C          -0.184437           
         C13       1.0000    0.49910   0.31080   0.71370   Biso      1.000     C          -0.18405  
         C14       1.0000    0.67410   0.22370   0.90950   Biso      1.000     C          -0.16871  
         C15       1.0000    0.50090   0.31080   0.78630   Biso      1.000     C          -0.18405  
         C16       1.0000    0.09020   0.46980   0.44850   Biso      1.000     C          0.6477109999999999  
         C17       1.0000    0.85770   0.94740   0.46520   Biso      1.000     C          0.64036   
         C18       1.0000    0.65860   0.90580   0.43610   Biso      1.000     C          0.0679    
         C19       1.0000    0.99830   0.95140   0.69470   Biso      1.000     C          0.085767  
         C20       1.0000    0.35770   0.44740   0.46520   Biso      1.000     C          0.64036   
         C21       1.0000    0.17410   0.27630   0.40950   Biso      1.000     C          -0.168719           
         C22       1.0000    0.00170   0.04860   0.30530   Biso      1.000     C          0.085767  
         C23       1.0000    0.40980   0.03020   0.55150   Biso      1.000     C          0.647712  
         C24       1.0000    0.00830   0.98280   0.37380   Biso      1.000     C          0.631664  
         C25       1.0000    0.00090   0.18920   0.28630   Biso      1.000     C          -0.18403599999999998          
         C26       1.0000    0.77890   0.09910   0.94250   Biso      1.000     C          0.079283  
         C27       1.0000    0.85770   0.05260   0.96520   Biso      1.000     C          0.64036   
         C28       1.0000    0.25130   0.27250   0.41380   Biso      1.000     C          -0.184436           
         C29       1.0000    0.15860   0.40580   0.43610   Biso      1.000     C          0.0679    
         C30       1.0000    0.49830   0.45140   0.69470   Biso      1.000     C          0.08578200000000001           
         C31       1.0000    0.49910   0.68920   0.21370   Biso      1.000     C          -0.184052           
         C32       1.0000    0.99910   0.81080   0.71370   Biso      1.000     C          -0.18403599999999998          
         C33       1.0000    0.99170   0.01720   0.62620   Biso      1.000     C          0.631664  
         C34       1.0000    0.59020   0.96980   0.44850   Biso      1.000     C          0.6477109999999999  
         C35       1.0000    0.50830   0.51720   0.87380   Biso      1.000     C          0.631663  
         C36       1.0000    0.34140   0.09420   0.56390   Biso      1.000     C          0.067892  
         C37       1.0000    0.90980   0.46980   0.05150   Biso      1.000     C          0.647712  
         C38       1.0000    0.84140   0.40580   0.06390   Biso      1.000     C          0.067892  
         C39       1.0000    0.34140   0.90580   0.06390   Biso      1.000     C          0.067892  
         C40       1.0000    0.14230   0.94740   0.03480   Biso      1.000     C          0.64036   
         C41       1.0000    0.22110   0.90090   0.05750   Biso      1.000     C          0.079283  
         C42       1.0000    0.50170   0.54860   0.30530   Biso      1.000     C          0.085767  
         C43       1.0000    0.35770   0.55260   0.96520   Biso      1.000     C          0.64036   
         C44       1.0000    0.32590   0.77630   0.09050   Biso      1.000     C          -0.16871  
         C45       1.0000    0.00170   0.95140   0.80530   Biso      1.000     C          0.085767  
         C46       1.0000    0.90980   0.53020   0.55150   Biso      1.000     C          0.6477109999999999  
         C47       1.0000    0.50090   0.68920   0.28630   Biso      1.000     C          -0.184034           
         C48       1.0000    0.15860   0.59420   0.93610   Biso      1.000     C          0.067892  
         C49       1.0000    0.49830   0.54860   0.19470   Biso      1.000     C          0.08578200000000001           
         C50       1.0000    0.09020   0.53020   0.94850   Biso      1.000     C          0.647712  
         C51       1.0000    0.24870   0.77250   0.08620   Biso      1.000     C          -0.18443299999999999          
         C52       1.0000    0.49170   0.48280   0.12620   Biso      1.000     C          0.631663  
         C53       1.0000    0.50830   0.48280   0.37380   Biso      1.000     C          0.631664  
         C54       1.0000    0.40980   0.96980   0.05150   Biso      1.000     C          0.647712  
         C55       1.0000    0.00830   0.01720   0.87380   Biso      1.000     C          0.631664  
         C56       1.0000    0.00090   0.81080   0.78630   Biso      1.000     C          -0.18403599999999998          
         C57       1.0000    0.64230   0.44740   0.03480   Biso      1.000     C          0.64036   
         C58       1.0000    0.72110   0.40090   0.05750   Biso      1.000     C          0.079283  
         C59       1.0000    0.24870   0.22750   0.58620   Biso      1.000     C          -0.18443299999999999          
         C60       1.0000    0.82590   0.27630   0.09050   Biso      1.000     C          -0.16871  
         C61       1.0000    0.82590   0.72370   0.59050   Biso      1.000     C          -0.168719           
         C62       1.0000    0.17410   0.72370   0.90950   Biso      1.000     C          -0.16871  
         C63       1.0000    0.50170   0.45140   0.80530   Biso      1.000     C          0.08578200000000001           
         C64       1.0000    0.14230   0.05260   0.53480   Biso      1.000     C          0.64036   
         C65       1.0000    0.64230   0.55260   0.53480   Biso      1.000     C          0.64036   
         C66       1.0000    0.75130   0.22750   0.91380   Biso      1.000     C          -0.18443299999999999          
         C67       1.0000    0.74870   0.27250   0.08620   Biso      1.000     C          -0.18443299999999999          
         C68       1.0000    0.84140   0.59420   0.56390   Biso      1.000     C          0.0679    
         C69       1.0000    0.32590   0.22370   0.59050   Biso      1.000     C          -0.16871  
         C70       1.0000    0.27890   0.59910   0.94250   Biso      1.000     C          0.079287  
         C71       1.0000    0.72110   0.59910   0.55750   Biso      1.000     C          0.079287  
         C72       1.0000    0.27890   0.40090   0.44250   Biso      1.000     C          0.079287  
         Dy1       1.0000    0.97923   0.78155   0.00485   Biso      1.000     Dy          2.1232130000000002  
         Dy2       1.0000    0.02077   0.21845   0.99515   Biso      1.000     Dy          2.1232130000000002  
         Dy3       1.0000    0.52077   0.28155   0.49515   Biso      1.000     Dy          2.1232130000000002  
         Dy4       1.0000    0.47923   0.71845   0.50485   Biso      1.000     Dy          2.1232130000000002  
         Dy5       1.0000    0.47923   0.28155   0.00485   Biso      1.000     Dy          2.1232130000000002  
         Dy6       1.0000    0.97923   0.21845   0.50485   Biso      1.000     Dy          2.1232130000000002  
         Dy7       1.0000    0.02077   0.78155   0.49515   Biso      1.000     Dy          2.1232130000000002  
         Dy8       1.0000    0.52077   0.71845   0.99515   Biso      1.000     Dy          2.1232130000000002  
         H1        1.0000    0.99860   0.26950   0.18510   Biso      1.000     H          0.155304  
         H2        1.0000    0.27820   0.80280   0.89980   Biso      1.000     H          0.154892  
         H3        1.0000    0.22180   0.30280   0.60020   Biso      1.000     H          0.154891  
         H4        1.0000    0.14020   0.79590   0.89190   Biso      1.000     H          0.145378  
         H5        1.0000    0.64020   0.29590   0.89190   Biso      1.000     H          0.145378  
         H6        1.0000    0.35980   0.29590   0.60810   Biso      1.000     H          0.145378  
         H7        1.0000    0.99860   0.73050   0.68510   Biso      1.000     H          0.155304  
         H8        1.0000    0.77820   0.30280   0.89980   Biso      1.000     H          0.154891  
         H9        1.0000    0.22180   0.69720   0.10020   Biso      1.000     H          0.154891  
         H10       1.0000    0.50140   0.76950   0.31490   Biso      1.000     H          0.155304  
         H11       1.0000    0.35980   0.70410   0.10810   Biso      1.000     H          0.145378  
         H12       1.0000    0.00140   0.73050   0.81490   Biso      1.000     H          0.155304  
         H13       1.0000    0.72180   0.19720   0.10020   Biso      1.000     H          0.154891  
         H14       1.0000    0.85980   0.79590   0.60810   Biso      1.000     H          0.145379  
         H15       1.0000    0.85980   0.20410   0.10810   Biso      1.000     H          0.145378  
         H16       1.0000    0.77820   0.69720   0.39980   Biso      1.000     H          0.154892  
         H17       1.0000    0.50140   0.23050   0.81490   Biso      1.000     H          0.155305  
         H18       1.0000    0.49860   0.76950   0.18510   Biso      1.000     H          0.155306  
         H19       1.0000    0.64020   0.70410   0.39190   Biso      1.000     H          0.145379  
         H20       1.0000    0.49860   0.23050   0.68510   Biso      1.000     H          0.155306  
         H21       1.0000    0.14020   0.20410   0.39190   Biso      1.000     H          0.145379  
         H22       1.0000    0.00140   0.26950   0.31490   Biso      1.000     H          0.155304  
         H23       1.0000    0.27820   0.19720   0.39980   Biso      1.000     H          0.154892  
         H24       1.0000    0.72180   0.80280   0.60020   Biso      1.000     H          0.154892  
         O1        1.0000    0.50000   0.53800   0.75000   Biso      1.000     O          -0.071003           
         O2        1.0000    0.46530   0.11530   0.55750   Biso      1.000     O          -0.738054           
         O3        1.0000    0.00000   0.03800   0.75000   Biso      1.000     O          -0.071001           
         O4        1.0000    0.00270   0.06270   0.42390   Biso      1.000     O          -0.757275           
         O5        1.0000    0.90800   0.40060   0.53540   Biso      1.000     O          -0.654556           
         O6        1.0000    0.63080   0.42690   0.50870   Biso      1.000     O          -0.660021           
         O7        1.0000    0.96530   0.61530   0.55750   Biso      1.000     O          -0.738054           
         O8        1.0000    0.13080   0.92690   0.50870   Biso      1.000     O          -0.660022           
         O9        1.0000    0.02050   0.85060   0.37950   Biso      1.000     O          -0.606817           
         O10       1.0000    0.40800   0.90060   0.53540   Biso      1.000     O          -0.654556           
         O11       1.0000    0.50270   0.56270   0.42390   Biso      1.000     O          -0.757275           
         O12       1.0000    0.09870   0.14270   0.54580   Biso      1.000     O          -0.658859           
         O13       1.0000    0.59870   0.64270   0.54580   Biso      1.000     O          -0.658859           
         O14       1.0000    0.52050   0.35060   0.37950   Biso      1.000     O          -0.606817           
         O15       1.0000    0.77700   0.51620   0.54240   Biso      1.000     O          -0.083204           
         O16       1.0000    0.27700   0.01620   0.54240   Biso      1.000     O          -0.083203           
         O17       1.0000    0.72300   0.01620   0.95760   Biso      1.000     O          -0.083203           
         O18       1.0000    0.03470   0.61530   0.94250   Biso      1.000     O          -0.738054           
         O19       1.0000    0.90130   0.85730   0.45420   Biso      1.000     O          -0.658859           
         O20       1.0000    0.97950   0.14940   0.62050   Biso      1.000     O          -0.606817           
         O21       1.0000    0.86920   0.07310   0.49130   Biso      1.000     O          -0.660021           
         O22       1.0000    0.72300   0.98380   0.45760   Biso      1.000     O          -0.083203           
         O23       1.0000    0.90800   0.59940   0.03540   Biso      1.000     O          -0.654556           
         O24       1.0000    0.96530   0.38470   0.05750   Biso      1.000     O          -0.738054           
         O25       1.0000    0.50270   0.43730   0.92390   Biso      1.000     O          -0.757274           
         O26       1.0000    0.59870   0.35730   0.04580   Biso      1.000     O          -0.658859           
         O27       1.0000    0.99730   0.93730   0.57610   Biso      1.000     O          -0.757275           
         O28       1.0000    0.52050   0.64940   0.87950   Biso      1.000     O          -0.606817           
         O29       1.0000    0.77700   0.48380   0.04240   Biso      1.000     O          -0.083203           
         O30       1.0000    0.40800   0.09940   0.03540   Biso      1.000     O          -0.654556           
         O31       1.0000    0.46530   0.88470   0.05750   Biso      1.000     O          -0.738054           
         O32       1.0000    0.00270   0.93730   0.92390   Biso      1.000     O          -0.757275           
         O33       1.0000    0.09870   0.85730   0.04580   Biso      1.000     O          -0.658859           
         O34       1.0000    0.02050   0.14940   0.87950   Biso      1.000     O          -0.606817           
         O35       1.0000    0.13080   0.07310   0.00870   Biso      1.000     O          -0.660022           
         O36       1.0000    0.27700   0.98380   0.04240   Biso      1.000     O          -0.083203           
         O37       1.0000    0.63080   0.57310   0.00870   Biso      1.000     O          -0.660021           
         O38       1.0000    0.09200   0.40060   0.96460   Biso      1.000     O          -0.654556           
         O39       1.0000    0.53470   0.88470   0.44250   Biso      1.000     O          -0.738054           
         O40       1.0000    0.22300   0.48380   0.45760   Biso      1.000     O          -0.083204           
         O41       1.0000    0.49730   0.56270   0.07610   Biso      1.000     O          -0.757274           
         O42       1.0000    0.40130   0.64270   0.95420   Biso      1.000     O          -0.658859           
         O43       1.0000    0.47950   0.35060   0.12050   Biso      1.000     O          -0.606817           
         O44       1.0000    0.36920   0.42690   0.99130   Biso      1.000     O          -0.660022           
         O45       1.0000    0.22300   0.51620   0.95760   Biso      1.000     O          -0.083203           
         O46       1.0000    0.59200   0.90060   0.96460   Biso      1.000     O          -0.654556           
         O47       1.0000    0.53470   0.11530   0.94250   Biso      1.000     O          -0.738054           
         O48       1.0000    0.99730   0.06270   0.07610   Biso      1.000     O          -0.757275           
         O49       1.0000    0.59200   0.09940   0.46460   Biso      1.000     O          -0.654556           
         O50       1.0000    0.90130   0.14270   0.95420   Biso      1.000     O          -0.658859           
         O51       1.0000    0.86920   0.92690   0.99130   Biso      1.000     O          -0.660021           
         O52       1.0000    0.00000   0.96200   0.25000   Biso      1.000     O          -0.071001           
         O53       1.0000    0.09200   0.59940   0.46460   Biso      1.000     O          -0.654556           
         O54       1.0000    0.03470   0.38470   0.44250   Biso      1.000     O          -0.738054           
         O55       1.0000    0.49730   0.43730   0.57610   Biso      1.000     O          -0.757274           
         O56       1.0000    0.40130   0.35730   0.45420   Biso      1.000     O          -0.658859           
         O57       1.0000    0.47950   0.64940   0.62050   Biso      1.000     O          -0.606817           
         O58       1.0000    0.36920   0.57310   0.49130   Biso      1.000     O          -0.660021           
         O59       1.0000    0.97950   0.85060   0.12050   Biso      1.000     O          -0.606817           
         O60       1.0000    0.50000   0.46200   0.25000   Biso      1.000     O          -0.071002 