
##########################################################################
#               Crystallographic Information Format file
#               Produced by PyCifRW module
#
#  This is a CIF file.  CIF has been adopted by the International
#  Union of Crystallography as the standard for data archiving and
#  transmission.
#
#  For information on this file format, follow the CIF links at
#  http://www.iucr.org
##########################################################################

data_image0

_cell_length_a                          18.3085
_cell_length_b                          9.0788
_cell_length_c                          19.6464
_cell_angle_alpha                       90
_cell_angle_beta                        97.068
_cell_angle_gamma                       90
_symmetry_space_group_name_H-M          'P 1'
_symmetry_int_tables_number             1
loop_
  _symmetry_equiv_pos_as_xyz
         'x, y, z' 
loop_
  _atom_site_label
  _atom_site_occupancy
  _atom_site_fract_x
  _atom_site_fract_y
  _atom_site_fract_z
  _atom_site_thermal_displace_type
  _atom_site_B_iso_or_equiv
  _atom_site_type_symbol
  _atom_site_charge
         C1        1.0000    0.83934   0.39400   0.56824   Biso      1.000     C          0.067895  
         C2        1.0000    0.50461   0.47490   0.30723   Biso      1.000     C          0.094678  
         C3        1.0000    0.40944   0.96210   0.55314   Biso      1.000     C          0.664307  
         C4        1.0000    0.50269   0.33290   0.28681   Biso      1.000     C          -0.179098           
         C5        1.0000    0.24557   0.75580   0.59270   Biso      1.000     C          -0.17616  
         C6        1.0000    0.51327   0.54150   0.37410   Biso      1.000     C          0.616537  
         C7        1.0000    0.32267   0.76440   0.59733   Biso      1.000     C          -0.167946           
         C8        1.0000    0.09056   0.53790   0.44686   Biso      1.000     C          0.664308  
         C9        1.0000    0.99539   0.02510   0.69277   Biso      1.000     C          0.094678  
         C10       1.0000    0.21894   0.87950   0.55890   Biso      1.000     C          0.083617  
         C11       1.0000    0.28106   0.62050   0.44110   Biso      1.000     C          0.083611  
         C12       1.0000    0.16066   0.60600   0.43176   Biso      1.000     C          0.067895  
         C13       1.0000    0.21894   0.12050   0.05890   Biso      1.000     C          0.083611  
         C14       1.0000    0.71894   0.37950   0.55890   Biso      1.000     C          0.083611  
         C15       1.0000    0.00461   0.97490   0.30723   Biso      1.000     C          0.094678  
         C16       1.0000    0.90944   0.46210   0.55314   Biso      1.000     C          0.664308  
         C17       1.0000    0.00269   0.83290   0.28681   Biso      1.000     C          -0.1791   
         C18       1.0000    0.74557   0.25580   0.59270   Biso      1.000     C          -0.176155           
         C19       1.0000    0.01327   0.04150   0.37410   Biso      1.000     C          0.616537  
         C20       1.0000    0.14229   0.92710   0.53344   Biso      1.000     C          0.620715  
         C21       1.0000    0.33934   0.89400   0.56824   Biso      1.000     C          0.067903  
         C22       1.0000    0.99731   0.16710   0.71319   Biso      1.000     C          -0.1791   
         C23       1.0000    0.25443   0.74420   0.40730   Biso      1.000     C          -0.176155           
         C24       1.0000    0.50461   0.52510   0.80723   Biso      1.000     C          0.094678  
         C25       1.0000    0.40944   0.03790   0.05314   Biso      1.000     C          0.664307  
         C26       1.0000    0.50269   0.66710   0.78681   Biso      1.000     C          -0.1791   
         C27       1.0000    0.24557   0.24420   0.09270   Biso      1.000     C          -0.176154           
         C28       1.0000    0.51327   0.45850   0.87410   Biso      1.000     C          0.616537  
         C29       1.0000    0.32267   0.23560   0.09733   Biso      1.000     C          -0.167947           
         C30       1.0000    0.35771   0.57290   0.46656   Biso      1.000     C          0.620716  
         C31       1.0000    0.14229   0.07290   0.03344   Biso      1.000     C          0.620716  
         C32       1.0000    0.83934   0.60600   0.06824   Biso      1.000     C          0.067895  
         C33       1.0000    0.71894   0.62050   0.05890   Biso      1.000     C          0.083611  
         C34       1.0000    0.00461   0.02510   0.80723   Biso      1.000     C          0.094678  
         C35       1.0000    0.90944   0.53790   0.05314   Biso      1.000     C          0.664308  
         C36       1.0000    0.00269   0.16710   0.78681   Biso      1.000     C          -0.1791   
         C37       1.0000    0.74557   0.74420   0.09270   Biso      1.000     C          -0.176155           
         C38       1.0000    0.01327   0.95850   0.87410   Biso      1.000     C          0.616537  
         C39       1.0000    0.17733   0.73560   0.40267   Biso      1.000     C          -0.167938           
         C40       1.0000    0.82267   0.73560   0.09733   Biso      1.000     C          -0.167938           
         C41       1.0000    0.98673   0.95850   0.62590   Biso      1.000     C          0.616537  
         C42       1.0000    0.64229   0.57290   0.03344   Biso      1.000     C          0.620716  
         C43       1.0000    0.82267   0.26440   0.59733   Biso      1.000     C          -0.167938           
         C44       1.0000    0.85771   0.07290   0.46656   Biso      1.000     C          0.620715  
         C45       1.0000    0.33934   0.10600   0.06824   Biso      1.000     C          0.067903  
         C46       1.0000    0.49539   0.52510   0.69277   Biso      1.000     C          0.094678  
         C47       1.0000    0.16066   0.39400   0.93176   Biso      1.000     C          0.067895  
         C48       1.0000    0.99539   0.97490   0.19277   Biso      1.000     C          0.094677  
         C49       1.0000    0.49731   0.66710   0.71319   Biso      1.000     C          -0.1791   
         C50       1.0000    0.85771   0.92710   0.96656   Biso      1.000     C          0.620715  
         C51       1.0000    0.75443   0.24420   0.40730   Biso      1.000     C          -0.176161           
         C52       1.0000    0.48673   0.45850   0.62590   Biso      1.000     C          0.616537  
         C53       1.0000    0.09056   0.46210   0.94686   Biso      1.000     C          0.664308  
         C54       1.0000    0.67733   0.76440   0.90267   Biso      1.000     C          -0.167946           
         C55       1.0000    0.99731   0.83290   0.21319   Biso      1.000     C          -0.1791   
         C56       1.0000    0.48673   0.54150   0.12590   Biso      1.000     C          0.616535  
         C57       1.0000    0.28106   0.37950   0.94110   Biso      1.000     C          0.083611  
         C58       1.0000    0.49731   0.33290   0.21319   Biso      1.000     C          -0.179121           
         C59       1.0000    0.25443   0.25580   0.90730   Biso      1.000     C          -0.176155           
         C60       1.0000    0.35771   0.42710   0.96656   Biso      1.000     C          0.620716  
         C61       1.0000    0.75443   0.75580   0.90730   Biso      1.000     C          -0.176161           
         C62       1.0000    0.59056   0.96210   0.94686   Biso      1.000     C          0.664307  
         C63       1.0000    0.64229   0.42710   0.53344   Biso      1.000     C          0.620716  
         C64       1.0000    0.17733   0.26440   0.90267   Biso      1.000     C          -0.167938           
         C65       1.0000    0.78106   0.12050   0.44110   Biso      1.000     C          0.083616  
         C66       1.0000    0.98673   0.04150   0.12590   Biso      1.000     C          0.616537  
         C67       1.0000    0.66066   0.89400   0.93176   Biso      1.000     C          0.067903  
         C68       1.0000    0.67733   0.23560   0.40267   Biso      1.000     C          -0.167946           
         C69       1.0000    0.66066   0.10600   0.43176   Biso      1.000     C          0.067903  
         C70       1.0000    0.59056   0.03790   0.44686   Biso      1.000     C          0.664307  
         C71       1.0000    0.78106   0.87950   0.94110   Biso      1.000     C          0.083616  
         C72       1.0000    0.49539   0.47490   0.19277   Biso      1.000     C          0.094697  
         Dy1       1.0000    0.02846   0.78776   0.00220   Biso      1.000     Dy          2.131983  
         Dy2       1.0000    0.47154   0.28776   0.49780   Biso      1.000     Dy          2.131983  
         Dy3       1.0000    0.02846   0.21224   0.50220   Biso      1.000     Dy          2.131983  
         Dy4       1.0000    0.52846   0.28776   0.00220   Biso      1.000     Dy          2.131983  
         Dy5       1.0000    0.47154   0.71224   0.99780   Biso      1.000     Dy          2.131983  
         Dy6       1.0000    0.97154   0.78776   0.49780   Biso      1.000     Dy          2.131983  
         Dy7       1.0000    0.97154   0.21224   0.99780   Biso      1.000     Dy          2.131983  
         Dy8       1.0000    0.52846   0.71224   0.50220   Biso      1.000     Dy          2.131983  
         H1        1.0000    0.28190   0.18070   0.89060   Biso      1.000     H          0.159192  
         H2        1.0000    0.00450   0.24950   0.81510   Biso      1.000     H          0.153368  
         H3        1.0000    0.85610   0.80560   0.11670   Biso      1.000     H          0.147183  
         H4        1.0000    0.35610   0.30560   0.11670   Biso      1.000     H          0.147184  
         H5        1.0000    0.14390   0.19440   0.88330   Biso      1.000     H          0.147183  
         H6        1.0000    0.99550   0.75050   0.18490   Biso      1.000     H          0.153368  
         H7        1.0000    0.71810   0.81930   0.10940   Biso      1.000     H          0.159192  
         H8        1.0000    0.49550   0.74950   0.68490   Biso      1.000     H          0.153368  
         H9        1.0000    0.28190   0.81930   0.39060   Biso      1.000     H          0.159192  
         H10       1.0000    0.85610   0.19440   0.61670   Biso      1.000     H          0.147183  
         H11       1.0000    0.50450   0.74950   0.81510   Biso      1.000     H          0.153368  
         H12       1.0000    0.71810   0.18070   0.60940   Biso      1.000     H          0.159192  
         H13       1.0000    0.00450   0.75050   0.31510   Biso      1.000     H          0.153368  
         H14       1.0000    0.14390   0.80560   0.38330   Biso      1.000     H          0.147183  
         H15       1.0000    0.21810   0.31930   0.10940   Biso      1.000     H          0.159192  
         H16       1.0000    0.49550   0.25050   0.18490   Biso      1.000     H          0.15337   
         H17       1.0000    0.64390   0.30560   0.38330   Biso      1.000     H          0.147184  
         H18       1.0000    0.64390   0.69440   0.88330   Biso      1.000     H          0.147184  
         H19       1.0000    0.35610   0.69440   0.61670   Biso      1.000     H          0.147184  
         H20       1.0000    0.99550   0.24950   0.68490   Biso      1.000     H          0.153368  
         H21       1.0000    0.21810   0.68070   0.60940   Biso      1.000     H          0.159193  
         H22       1.0000    0.78190   0.31930   0.39060   Biso      1.000     H          0.159193  
         H23       1.0000    0.78190   0.68070   0.89060   Biso      1.000     H          0.159193  
         H24       1.0000    0.50450   0.25050   0.31510   Biso      1.000     H          0.153368  
         O1        1.0000    0.36748   0.44630   0.49047   Biso      1.000     O          -0.65178  
         O2        1.0000    0.00000   0.06560   0.25000   Biso      1.000     O          -0.101469           
         O3        1.0000    0.50000   0.56560   0.25000   Biso      1.000     O          -0.10147  
         O4        1.0000    0.49321   0.54110   0.57480   Biso      1.000     O          -0.776722           
         O5        1.0000    0.99321   0.04110   0.57480   Biso      1.000     O          -0.776722           
         O6        1.0000    0.22500   0.53030   0.45546   Biso      1.000     O          -0.094797           
         O7        1.0000    0.97247   0.82360   0.61941   Biso      1.000     O          -0.577992           
         O8        1.0000    0.03425   0.61900   0.43884   Biso      1.000     O          -0.715119           
         O9        1.0000    0.53425   0.11900   0.43884   Biso      1.000     O          -0.715119           
         O10       1.0000    0.59341   0.90610   0.46614   Biso      1.000     O          -0.675479           
         O11       1.0000    0.86748   0.94630   0.49047   Biso      1.000     O          -0.65178  
         O12       1.0000    0.47247   0.32360   0.61941   Biso      1.000     O          -0.577992           
         O13       1.0000    0.90657   0.17010   0.45942   Biso      1.000     O          -0.673653           
         O14       1.0000    0.72500   0.03030   0.45546   Biso      1.000     O          -0.094798           
         O15       1.0000    0.40657   0.67010   0.45942   Biso      1.000     O          -0.673653           
         O16       1.0000    0.09341   0.59390   0.96614   Biso      1.000     O          -0.675479           
         O17       1.0000    0.63252   0.44630   0.00953   Biso      1.000     O          -0.65178  
         O18       1.0000    0.46575   0.11900   0.06116   Biso      1.000     O          -0.715119           
         O19       1.0000    0.77500   0.46970   0.54454   Biso      1.000     O          -0.094797           
         O20       1.0000    0.00679   0.95890   0.42520   Biso      1.000     O          -0.776722           
         O21       1.0000    0.59343   0.32990   0.54058   Biso      1.000     O          -0.673653           
         O22       1.0000    0.63252   0.55370   0.50953   Biso      1.000     O          -0.65178  
         O23       1.0000    0.90659   0.59390   0.53386   Biso      1.000     O          -0.675479           
         O24       1.0000    0.53425   0.88100   0.93884   Biso      1.000     O          -0.715119           
         O25       1.0000    0.47247   0.67640   0.11941   Biso      1.000     O          -0.577992           
         O26       1.0000    0.72500   0.96970   0.95546   Biso      1.000     O          -0.094798           
         O27       1.0000    0.02753   0.17640   0.38059   Biso      1.000     O          -0.577992           
         O28       1.0000    0.49321   0.45890   0.07480   Biso      1.000     O          -0.776721           
         O29       1.0000    0.86748   0.05370   0.99047   Biso      1.000     O          -0.65178  
         O30       1.0000    0.59341   0.09390   0.96614   Biso      1.000     O          -0.675479           
         O31       1.0000    0.03425   0.38100   0.93884   Biso      1.000     O          -0.715119           
         O32       1.0000    0.97247   0.17640   0.11941   Biso      1.000     O          -0.577992           
         O33       1.0000    0.22500   0.46970   0.95546   Biso      1.000     O          -0.094797           
         O34       1.0000    0.99321   0.95890   0.07480   Biso      1.000     O          -0.776722           
         O35       1.0000    0.40657   0.32990   0.95942   Biso      1.000     O          -0.673653           
         O36       1.0000    0.36748   0.55370   0.99047   Biso      1.000     O          -0.65178  
         O37       1.0000    0.90657   0.82990   0.95942   Biso      1.000     O          -0.673653           
         O38       1.0000    0.09341   0.40610   0.46614   Biso      1.000     O          -0.675479           
         O39       1.0000    0.96575   0.38100   0.56116   Biso      1.000     O          -0.715119           
         O40       1.0000    0.13252   0.05370   0.50953   Biso      1.000     O          -0.65178  
         O41       1.0000    0.52753   0.32360   0.88059   Biso      1.000     O          -0.577992           
         O42       1.0000    0.27500   0.03030   0.04454   Biso      1.000     O          -0.094798           
         O43       1.0000    0.50679   0.54110   0.92520   Biso      1.000     O          -0.776722           
         O44       1.0000    0.09343   0.17010   0.04058   Biso      1.000     O          -0.673653           
         O45       1.0000    0.13252   0.94630   0.00953   Biso      1.000     O          -0.65178  
         O46       1.0000    0.40659   0.90610   0.03386   Biso      1.000     O          -0.675479           
         O47       1.0000    0.96575   0.61900   0.06116   Biso      1.000     O          -0.715119           
         O48       1.0000    0.02753   0.82360   0.88059   Biso      1.000     O          -0.577992           
         O49       1.0000    0.40659   0.09390   0.53386   Biso      1.000     O          -0.675479           
         O50       1.0000    0.77500   0.53030   0.04454   Biso      1.000     O          -0.094797           
         O51       1.0000    0.59343   0.67010   0.04058   Biso      1.000     O          -0.673653           
         O52       1.0000    0.00000   0.93440   0.75000   Biso      1.000     O          -0.101469           
         O53       1.0000    0.90659   0.40610   0.03386   Biso      1.000     O          -0.675479           
         O54       1.0000    0.46575   0.88100   0.56116   Biso      1.000     O          -0.715119           
         O55       1.0000    0.52753   0.67640   0.38059   Biso      1.000     O          -0.577992           
         O56       1.0000    0.27500   0.96970   0.54454   Biso      1.000     O          -0.094798           
         O57       1.0000    0.50679   0.45890   0.42520   Biso      1.000     O          -0.776722           
         O58       1.0000    0.09343   0.82990   0.54058   Biso      1.000     O          -0.673653           
         O59       1.0000    0.00679   0.04110   0.92520   Biso      1.000     O          -0.776722           
         O60       1.0000    0.50000   0.43440   0.75000   Biso      1.000     O          -0.101469 