
##########################################################################
#               Crystallographic Information Format file
#               Produced by PyCifRW module
#
#  This is a CIF file.  CIF has been adopted by the International
#  Union of Crystallography as the standard for data archiving and
#  transmission.
#
#  For information on this file format, follow the CIF links at
#  http://www.iucr.org
##########################################################################

data_image0

_cell_length_a                          13.1587
_cell_length_b                          13.1587
_cell_length_c                          16.1012
_cell_angle_alpha                       90
_cell_angle_beta                        90
_cell_angle_gamma                       120
_symmetry_space_group_name_H-M          'P 1'
_symmetry_int_tables_number             1
loop_
  _symmetry_equiv_pos_as_xyz
         'x, y, z' 
loop_
  _atom_site_label
  _atom_site_occupancy
  _atom_site_fract_x
  _atom_site_fract_y
  _atom_site_fract_z
  _atom_site_thermal_displace_type
  _atom_site_B_iso_or_equiv
  _atom_site_type_symbol
  _atom_site_charge
         Al1       1.0000    0.87810   0.54100   0.10630   Biso      1.000     Al          1.787246  
         Al2       1.0000    0.33333   0.66667   0.84280   Biso      1.000     Al          1.148048  
         Al3       1.0000    0.33333   0.66667   0.01550   Biso      1.000     Al          1.211376  
         Al4       1.0000    0.66260   0.11270   0.74290   Biso      1.000     Al          1.7861639999999999  
         Al5       1.0000    0.66290   0.12190   0.10630   Biso      1.000     Al          1.7873139999999998  
         Al6       1.0000    0.45010   0.33740   0.74290   Biso      1.000     Al          1.7865259999999998  
         Al7       1.0000    0.45900   0.33710   0.10630   Biso      1.000     Al          1.787291  
         Al8       1.0000    0.88730   0.54990   0.74290   Biso      1.000     Al          1.786527  
         Al9       1.0000    0.66667   0.33333   0.51550   Biso      1.000     Al          1.212601  
         Al10      1.0000    0.33740   0.88730   0.24290   Biso      1.000     Al          1.7864669999999998  
         Al11      1.0000    0.33710   0.87810   0.60630   Biso      1.000     Al          1.7872830000000002  
         Al12      1.0000    0.54990   0.66260   0.24290   Biso      1.000     Al          1.7863200000000001  
         Al13      1.0000    0.54100   0.66290   0.60630   Biso      1.000     Al          1.7872869999999998  
         Al14      1.0000    0.66667   0.33333   0.34280   Biso      1.000     Al          1.14934   
         Al15      1.0000    0.12190   0.45900   0.60630   Biso      1.000     Al          1.78732   
         Al16      1.0000    0.11270   0.45010   0.24290   Biso      1.000     Al          1.786343  
         O1        1.0000    0.21440   0.67520   0.79380   Biso      1.000     O          -0.782359           
         O2        1.0000    0.80390   0.58480   0.67960   Biso      1.000     O          -0.836033           
         O3        1.0000    0.64040   0.62010   0.62370   Biso      1.000     O          -0.827901           
         O4        1.0000    0.58650   0.44070   0.71560   Biso      1.000     O          -0.892963           
         O5        1.0000    0.14580   0.58650   0.21560   Biso      1.000     O          -0.892681           
         O6        1.0000    0.02030   0.64040   0.12370   Biso      1.000     O          -0.827606           
         O7        1.0000    0.65600   0.44520   0.92550   Biso      1.000     O          -0.877994           
         O8        1.0000    0.78560   0.32480   0.29380   Biso      1.000     O          -0.782972           
         O9        1.0000    0.84930   0.53700   0.83880   Biso      1.000     O          -0.9646370000000001           
         O10       1.0000    0.96400   0.33320   0.23600   Biso      1.000     O          -0.784098           
         O11       1.0000    0.86200   0.54660   0.00190   Biso      1.000     O          -0.9703780000000001           
         O12       1.0000    0.85210   0.40820   0.13830   Biso      1.000     O          -0.892013           
         O13       1.0000    0.76290   0.18210   0.18220   Biso      1.000     O          -0.805928           
         O14       1.0000    0.15070   0.46300   0.33880   Biso      1.000     O          -0.9644219999999999           
         O15       1.0000    0.78090   0.19610   0.67960   Biso      1.000     O          -0.8342879999999999           
         O16       1.0000    0.67050   0.45220   0.56950   Biso      1.000     O          -0.8119460000000001           
         O17       1.0000    0.81790   0.58080   0.18220   Biso      1.000     O          -0.8061659999999999           
         O18       1.0000    0.45340   0.31540   0.00190   Biso      1.000     O          -0.9704440000000001           
         O19       1.0000    0.97970   0.35960   0.62370   Biso      1.000     O          -0.828009           
         O20       1.0000    0.78920   0.34400   0.92550   Biso      1.000     O          -0.878065           
         O21       1.0000    0.53920   0.21440   0.29380   Biso      1.000     O          -0.782859           
         O22       1.0000    0.68770   0.15070   0.83880   Biso      1.000     O          -0.9644790000000001           
         O23       1.0000    0.36920   0.03600   0.23600   Biso      1.000     O          -0.783722           
         O24       1.0000    0.68460   0.13800   0.00190   Biso      1.000     O          -0.970485           
         O25       1.0000    0.55610   0.14790   0.13830   Biso      1.000     O          -0.8920040000000001           
         O26       1.0000    0.41920   0.23710   0.18220   Biso      1.000     O          -0.806034           
         O27       1.0000    0.54780   0.21830   0.56950   Biso      1.000     O          -0.811954           
         O28       1.0000    0.41520   0.21910   0.67960   Biso      1.000     O          -0.8362700000000001           
         O29       1.0000    0.37990   0.02030   0.62370   Biso      1.000     O          -0.8279219999999999           
         O30       1.0000    0.55930   0.14580   0.71560   Biso      1.000     O          -0.892494           
         O31       1.0000    0.55480   0.21080   0.92550   Biso      1.000     O          -0.877985           
         O32       1.0000    0.67520   0.46080   0.29380   Biso      1.000     O          -0.783046           
         O33       1.0000    0.46300   0.31230   0.83880   Biso      1.000     O          -0.9644530000000001           
         O34       1.0000    0.66680   0.63080   0.23600   Biso      1.000     O          -0.7838390000000001           
         O35       1.0000    0.59180   0.44390   0.13830   Biso      1.000     O          -0.8920299999999999           
         O36       1.0000    0.85420   0.41350   0.71560   Biso      1.000     O          -0.892706           
         O37       1.0000    0.78170   0.32950   0.56950   Biso      1.000     O          -0.811136           
         O38       1.0000    0.44520   0.78920   0.42550   Biso      1.000     O          -0.878382           
         O39       1.0000    0.18210   0.41920   0.68220   Biso      1.000     O          -0.8059970000000001           
         O40       1.0000    0.32950   0.54780   0.06950   Biso      1.000     O          -0.811362           
         O41       1.0000    0.33320   0.36920   0.73600   Biso      1.000     O          -0.7837970000000001           
         O42       1.0000    0.53700   0.68770   0.33880   Biso      1.000     O          -0.963883           
         O43       1.0000    0.32480   0.53920   0.79380   Biso      1.000     O          -0.7824409999999999           
         O44       1.0000    0.19610   0.41520   0.17960   Biso      1.000     O          -0.8352959999999999           
         O45       1.0000    0.35960   0.37990   0.12370   Biso      1.000     O          -0.827915           
         O46       1.0000    0.14790   0.59180   0.63830   Biso      1.000     O          -0.8919540000000001           
         O47       1.0000    0.23710   0.81790   0.68220   Biso      1.000     O          -0.805843           
         O48       1.0000    0.41350   0.55930   0.21560   Biso      1.000     O          -0.892797           
         O49       1.0000    0.44070   0.85420   0.21560   Biso      1.000     O          -0.892552           
         O50       1.0000    0.62010   0.97970   0.12370   Biso      1.000     O          -0.8281   
         O51       1.0000    0.40820   0.55610   0.63830   Biso      1.000     O          -0.8919969999999999           
         O52       1.0000    0.13800   0.45340   0.50190   Biso      1.000     O          -0.970467           
         O53       1.0000    0.58480   0.78090   0.17960   Biso      1.000     O          -0.83554  
         O54       1.0000    0.45220   0.78170   0.06950   Biso      1.000     O          -0.811292           
         O55       1.0000    0.58080   0.76290   0.68220   Biso      1.000     O          -0.806057           
         O56       1.0000    0.44390   0.85210   0.63830   Biso      1.000     O          -0.8920170000000001           
         O57       1.0000    0.31540   0.86200   0.50190   Biso      1.000     O          -0.9704719999999999           
         O58       1.0000    0.63080   0.96400   0.73600   Biso      1.000     O          -0.783968           
         O59       1.0000    0.31230   0.84930   0.33880   Biso      1.000     O          -0.9647389999999999           
         O60       1.0000    0.46080   0.78560   0.79380   Biso      1.000     O          -0.782586           
         O61       1.0000    0.21080   0.65600   0.42550   Biso      1.000     O          -0.8779540000000001           
         O62       1.0000    0.34400   0.55480   0.42550   Biso      1.000     O          -0.877909           
         O63       1.0000    0.21830   0.67050   0.06950   Biso      1.000     O          -0.811161           
         O64       1.0000    0.21910   0.80390   0.17960   Biso      1.000     O          -0.8358190000000001           
         O65       1.0000    0.03600   0.66680   0.73600   Biso      1.000     O          -0.7838579999999999           
         O66       1.0000    0.54660   0.68460   0.50190   Biso      1.000     O          -0.9703430000000001           
         P1        1.0000    0.32850   0.47650   0.14720   Biso      1.000     P          1.698166  
         P2        1.0000    0.31820   0.47660   0.70640   Biso      1.000     P          1.601326  
         P3        1.0000    0.84160   0.31820   0.20640   Biso      1.000     P          1.601432  
         P4        1.0000    0.47660   0.15840   0.20640   Biso      1.000     P          1.6013680000000001  
         P5        1.0000    0.15840   0.68180   0.70640   Biso      1.000     P          1.601313  
         P6        1.0000    0.47650   0.14800   0.64720   Biso      1.000     P          1.69833   
         P7        1.0000    0.52350   0.85200   0.14720   Biso      1.000     P          1.698164  
         P8        1.0000    0.52340   0.84160   0.70640   Biso      1.000     P          1.601378  
         P9        1.0000    0.68180   0.52340   0.20640   Biso      1.000     P          1.6014329999999999  
         P10       1.0000    0.67150   0.52350   0.64720   Biso      1.000     P          1.698366  
         P11       1.0000    0.85200   0.32850   0.64720   Biso      1.000     P          1.697941  
         P12       1.0000    0.14800   0.67150   0.14720   Biso      1.000     P          1.698131  
         Si1       1.0000    0.21200   0.52760   0.42370   Biso      1.000     Si          1.784984  
         Si2       1.0000    0.78800   0.47240   0.92370   Biso      1.000     Si          1.785018  
         Si3       1.0000    0.47240   0.68440   0.42370   Biso      1.000     Si          1.7849560000000002  
         Si4       1.0000    0.31560   0.78800   0.42370   Biso      1.000     Si          1.785088  
         Si5       1.0000    0.52760   0.31560   0.92370   Biso      1.000     Si          1.7849560000000002  
         Si6       1.0000    0.68440   0.21200   0.92370   Biso      1.000     Si          1.785018 