
##########################################################################
#               Crystallographic Information Format file
#               Produced by PyCifRW module
#
#  This is a CIF file.  CIF has been adopted by the International
#  Union of Crystallography as the standard for data archiving and
#  transmission.
#
#  For information on this file format, follow the CIF links at
#  http://www.iucr.org
##########################################################################

data_image0

_cell_length_a                          12.1945
_cell_length_b                          12.1945
_cell_length_c                          12.169
_cell_angle_alpha                       119.482
_cell_angle_beta                        119.482
_cell_angle_gamma                       52.6782
_symmetry_space_group_name_H-M          'P 1'
_symmetry_int_tables_number             1
loop_
  _symmetry_equiv_pos_as_xyz
         'x, y, z' 
loop_
  _atom_site_label
  _atom_site_occupancy
  _atom_site_fract_x
  _atom_site_fract_y
  _atom_site_fract_z
  _atom_site_thermal_displace_type
  _atom_site_B_iso_or_equiv
  _atom_site_type_symbol
  _atom_site_charge
         C1        1.0000    0.50230   0.49770   0.75000   Biso      1.000     C          0.113981  
         C2        1.0000    0.19538   0.52858   0.31500   Biso      1.000     C          -0.104226           
         C3        1.0000    0.24526   0.50466   0.49980   Biso      1.000     C          0.097822  
         C4        1.0000    0.49534   0.75474   0.00020   Biso      1.000     C          0.09782300000000001           
         C5        1.0000    0.47142   0.80462   0.18500   Biso      1.000     C          -0.104226           
         C6        1.0000    0.47559   0.91439   0.18540   Biso      1.000     C          -0.06755499999999999          
         C7        1.0000    0.49885   0.23125   0.27050   Biso      1.000     C          0.121325  
         C8        1.0000    0.71649   0.19409   0.36840   Biso      1.000     C          -0.06914  
         C9        1.0000    0.71590   0.08290   0.25740   Biso      1.000     C          -0.082876           
         C10       1.0000    0.78688   0.71888   0.02360   Biso      1.000     C          0.121722  
         C11       1.0000    0.08561   0.52441   0.31460   Biso      1.000     C          -0.06755599999999999          
         C12       1.0000    0.93182   0.72322   0.97560   Biso      1.000     C          -0.055509           
         C13       1.0000    0.69379   0.31379   0.80920   Biso      1.000     C          -0.054187           
         C14       1.0000    0.75474   0.49534   0.50020   Biso      1.000     C          0.102479  
         C15       1.0000    0.80462   0.47142   0.68500   Biso      1.000     C          -0.102459           
         C16       1.0000    0.91439   0.47559   0.68540   Biso      1.000     C          -0.071881           
         C17       1.0000    0.23125   0.49885   0.77050   Biso      1.000     C          0.11598199999999999           
         C18       1.0000    0.19409   0.71649   0.86840   Biso      1.000     C          -0.073911           
         C19       1.0000    0.08290   0.71590   0.75740   Biso      1.000     C          -0.075507           
         C20       1.0000    0.71888   0.78688   0.52360   Biso      1.000     C          0.102094  
         C21       1.0000    0.72322   0.93182   0.47560   Biso      1.000     C          -0.074415           
         C22       1.0000    0.80496   0.84696   0.96690   Biso      1.000     C          -0.069829           
         C23       1.0000    0.84696   0.80496   0.46690   Biso      1.000     C          -0.09437100000000001          
         C24       1.0000    0.76875   0.50115   0.22950   Biso      1.000     C          0.121324  
         C25       1.0000    0.91710   0.28410   0.24260   Biso      1.000     C          -0.082886           
         C26       1.0000    0.49770   0.50230   0.25000   Biso      1.000     C          0.12155999999999999           
         C27       1.0000    0.68621   0.30621   0.69080   Biso      1.000     C          -0.054176           
         C28       1.0000    0.15304   0.19504   0.53310   Biso      1.000     C          -0.069839           
         C29       1.0000    0.27678   0.06818   0.52440   Biso      1.000     C          -0.055498           
         C30       1.0000    0.50466   0.24526   0.99980   Biso      1.000     C          0.10248   
         C31       1.0000    0.80591   0.28351   0.13160   Biso      1.000     C          -0.06913  
         C32       1.0000    0.52441   0.08561   0.81460   Biso      1.000     C          -0.071888           
         C33       1.0000    0.50115   0.76875   0.72950   Biso      1.000     C          0.11598199999999999           
         C34       1.0000    0.52858   0.19538   0.81500   Biso      1.000     C          -0.102453           
         C35       1.0000    0.28410   0.91710   0.74260   Biso      1.000     C          -0.075517           
         C36       1.0000    0.21312   0.28112   0.97640   Biso      1.000     C          0.102095  
         C37       1.0000    0.06818   0.27678   0.02440   Biso      1.000     C          -0.074415           
         C38       1.0000    0.19504   0.15304   0.03310   Biso      1.000     C          -0.09437000000000001          
         C39       1.0000    0.30621   0.68621   0.19080   Biso      1.000     C          -0.063949           
         C40       1.0000    0.28112   0.21312   0.47640   Biso      1.000     C          0.12172100000000001           
         C41       1.0000    0.28351   0.80591   0.63160   Biso      1.000     C          -0.073902           
         C42       1.0000    0.31379   0.69379   0.30920   Biso      1.000     C          -0.063936           
         Ga1       1.0000    0.50000   0.00000   0.00000   Biso      1.000     Ga          0.8925629999999999  
         Ga2       1.0000    0.00000   0.50000   0.50000   Biso      1.000     Ga          0.892567  
         Ga3       1.0000    0.50000   0.50000   0.00000   Biso      1.000     Ga          0.9042110000000001  
         Ga4       1.0000    0.50000   0.50000   0.50000   Biso      1.000     Ga          0.9042120000000001  
         H1        1.0000    0.76500   0.25100   0.86400   Biso      1.000     H          0.109099  
         H2        1.0000    0.01400   0.69400   0.96100   Biso      1.000     H          0.11714300000000001           
         H3        1.0000    0.30600   0.24800   0.44600   Biso      1.000     H          0.092315  
         H4        1.0000    0.01300   0.52500   0.25000   Biso      1.000     H          0.107519  
         H5        1.0000    0.19100   0.55300   0.26000   Biso      1.000     H          0.10878299999999999           
         H6        1.0000    0.72800   0.60400   0.25600   Biso      1.000     H          0.081467  
         H7        1.0000    0.99700   0.20900   0.27200   Biso      1.000     H          0.11336099999999999           
         H8        1.0000    0.79100   0.20500   0.06700   Biso      1.000     H          0.110047  
         H9        1.0000    0.77900   0.92500   0.94900   Biso      1.000     H          0.11746500000000001           
         H10       1.0000    0.07500   0.22100   0.55100   Biso      1.000     H          0.11746500000000001           
         H11       1.0000    0.30600   0.98600   0.53900   Biso      1.000     H          0.11714200000000001           
         H12       1.0000    0.74900   0.23500   0.63600   Biso      1.000     H          0.109098  
         H13       1.0000    0.58100   0.41900   0.25000   Biso      1.000     H          0.081457  
         H14       1.0000    0.28600   0.49600   0.58100   Biso      1.000     H          0.07103999999999999           
         H15       1.0000    0.75200   0.69400   0.05400   Biso      1.000     H          0.092315  
         H16       1.0000    0.49600   0.28600   0.08100   Biso      1.000     H          0.07130299999999999           
         H17       1.0000    0.79100   0.00300   0.22800   Biso      1.000     H          0.11335999999999999           
         H18       1.0000    0.69400   0.75200   0.55400   Biso      1.000     H          0.07848200000000001           
         H19       1.0000    0.20900   0.79500   0.93300   Biso      1.000     H          0.111515  
         H20       1.0000    0.00300   0.79100   0.72800   Biso      1.000     H          0.11915099999999999           
         H21       1.0000    0.27200   0.39600   0.74400   Biso      1.000     H          0.077784  
         H22       1.0000    0.79500   0.20900   0.43300   Biso      1.000     H          0.110048  
         H23       1.0000    0.98700   0.47500   0.75000   Biso      1.000     H          0.109509  
         H24       1.0000    0.71400   0.50400   0.41900   Biso      1.000     H          0.07130399999999999           
         H25       1.0000    0.46472   0.00699   0.46903   Biso      1.000     H          0.236026  
         H26       1.0000    0.23500   0.74900   0.13600   Biso      1.000     H          0.10680899999999999           
         H27       1.0000    0.98600   0.30600   0.03900   Biso      1.000     H          0.104207  
         H28       1.0000    0.22100   0.07500   0.05100   Biso      1.000     H          0.101774  
         H29       1.0000    0.24800   0.30600   0.94600   Biso      1.000     H          0.07848200000000001           
         H30       1.0000    0.20500   0.79100   0.56700   Biso      1.000     H          0.11151400000000002           
         H31       1.0000    0.20900   0.99700   0.77200   Biso      1.000     H          0.11915099999999999           
         H32       1.0000    0.60400   0.72800   0.75600   Biso      1.000     H          0.077783  
         H33       1.0000    0.55300   0.19100   0.76000   Biso      1.000     H          0.11256   
         H34       1.0000    0.52500   0.01300   0.75000   Biso      1.000     H          0.109509  
         H35       1.0000    0.92500   0.77900   0.44900   Biso      1.000     H          0.101775  
         H36       1.0000    0.69400   0.01400   0.46100   Biso      1.000     H          0.104207  
         H37       1.0000    0.80900   0.44700   0.74000   Biso      1.000     H          0.11256   
         H38       1.0000    0.44700   0.80900   0.24000   Biso      1.000     H          0.10878399999999999           
         H39       1.0000    0.39600   0.27200   0.24400   Biso      1.000     H          0.081467  
         H40       1.0000    0.41900   0.58100   0.75000   Biso      1.000     H          0.08109   
         H41       1.0000    0.47500   0.98700   0.25000   Biso      1.000     H          0.107519  
         H42       1.0000    0.50400   0.71400   0.91900   Biso      1.000     H          0.07103999999999999           
         H43       1.0000    0.99301   0.53528   0.03097   Biso      1.000     H          0.236026  
         H44       1.0000    0.25100   0.76500   0.36400   Biso      1.000     H          0.10680799999999999           
         N1        1.0000    0.11678   0.50998   0.43220   Biso      1.000     N          -0.266085           
         N2        1.0000    0.29927   0.51427   0.43430   Biso      1.000     N          -0.264583           
         N3        1.0000    0.89276   0.42396   0.30660   Biso      1.000     N          -0.287026           
         N4        1.0000    0.70965   0.42265   0.12290   Biso      1.000     N          -0.302316           
         N5        1.0000    0.56429   0.42529   0.65280   Biso      1.000     N          -0.288344           
         N6        1.0000    0.35790   0.08030   0.48820   Biso      1.000     N          -0.155614           
         N7        1.0000    0.64210   0.91970   0.51180   Biso      1.000     N          -0.313323           
         N8        1.0000    0.43571   0.57471   0.34720   Biso      1.000     N          -0.28430700000000003          
         N9        1.0000    0.15532   0.28852   0.50290   Biso      1.000     N          -0.27223600000000003          
         N10       1.0000    0.84468   0.71148   0.49710   Biso      1.000     N          -0.294691           
         N11       1.0000    0.91970   0.64210   0.01180   Biso      1.000     N          -0.155613           
         N12       1.0000    0.50998   0.11678   0.93220   Biso      1.000     N          -0.268439           
         N13       1.0000    0.71148   0.84468   0.99710   Biso      1.000     N          -0.272237           
         N14       1.0000    0.57735   0.29035   0.37710   Biso      1.000     N          -0.30231399999999997          
         N15       1.0000    0.57604   0.10724   0.19340   Biso      1.000     N          -0.287027           
         N16       1.0000    0.48573   0.70073   0.06570   Biso      1.000     N          -0.26458200000000004          
         N17       1.0000    0.49002   0.88322   0.06780   Biso      1.000     N          -0.266084           
         N18       1.0000    0.88322   0.49002   0.56780   Biso      1.000     N          -0.26844  
         N19       1.0000    0.57471   0.43571   0.84720   Biso      1.000     N          -0.28834299999999996          
         N20       1.0000    0.70073   0.48573   0.56570   Biso      1.000     N          -0.267061           
         N21       1.0000    0.42529   0.56429   0.15280   Biso      1.000     N          -0.284306           
         N22       1.0000    0.08030   0.35790   0.98820   Biso      1.000     N          -0.313323           
         N23       1.0000    0.28852   0.15532   0.00290   Biso      1.000     N          -0.29469  
         N24       1.0000    0.42265   0.70965   0.62290   Biso      1.000     N          -0.30289299999999997          
         N25       1.0000    0.42396   0.89276   0.80660   Biso      1.000     N          -0.287882           
         N26       1.0000    0.51427   0.29927   0.93430   Biso      1.000     N          -0.267061           
         N27       1.0000    0.10724   0.57604   0.69340   Biso      1.000     N          -0.287883           
         N28       1.0000    0.29035   0.57735   0.87710   Biso      1.000     N          -0.302892 