
##########################################################################
#               Crystallographic Information Format file
#               Produced by PyCifRW module
#
#  This is a CIF file.  CIF has been adopted by the International
#  Union of Crystallography as the standard for data archiving and
#  transmission.
#
#  For information on this file format, follow the CIF links at
#  http://www.iucr.org
##########################################################################

data_image0

_cell_length_a                          11.72
_cell_length_b                          13.7
_cell_length_c                          21.05
_cell_angle_alpha                       90
_cell_angle_beta                        90
_cell_angle_gamma                       90
_symmetry_space_group_name_H-M          'P 1'
_symmetry_int_tables_number             1
loop_
  _symmetry_equiv_pos_as_xyz
         'x, y, z' 
loop_
  _atom_site_label
  _atom_site_occupancy
  _atom_site_fract_x
  _atom_site_fract_y
  _atom_site_fract_z
  _atom_site_thermal_displace_type
  _atom_site_B_iso_or_equiv
  _atom_site_type_symbol
  _atom_site_charge
         C1        1.0000    0.37550   0.47900   0.59931   Biso      1.000     C          -0.188636           
         C2        1.0000    0.25690   0.47920   0.59827   Biso      1.000     C          0.09854199999999999           
         C3        1.0000    0.43558   0.40670   0.56727   Biso      1.000     C          0.10194600000000001           
         C4        1.0000    0.37710   0.33460   0.53419   Biso      1.000     C          -0.18978399999999998          
         C5        1.0000    0.25850   0.33480   0.53314   Biso      1.000     C          0.095462  
         C6        1.0000    0.25690   0.52080   0.40173   Biso      1.000     C          0.09854199999999999           
         C7        1.0000    0.37550   0.52100   0.40069   Biso      1.000     C          -0.188636           
         C8        1.0000    0.25850   0.16520   0.03314   Biso      1.000     C          0.095462  
         C9        1.0000    0.43558   0.59330   0.43273   Biso      1.000     C          0.10194600000000001           
         C10       1.0000    0.25850   0.66520   0.46686   Biso      1.000     C          0.095462  
         C11       1.0000    0.74310   0.02080   0.09827   Biso      1.000     C          0.09854199999999999           
         C12       1.0000    0.62450   0.02100   0.09931   Biso      1.000     C          -0.188636           
         C13       1.0000    0.56442   0.09330   0.06727   Biso      1.000     C          0.10194600000000001           
         C14       1.0000    0.62290   0.16540   0.03419   Biso      1.000     C          -0.18978399999999998          
         C15       1.0000    0.74150   0.16520   0.03314   Biso      1.000     C          0.095462  
         C16       1.0000    0.37710   0.66540   0.46581   Biso      1.000     C          -0.18978399999999998          
         C17       1.0000    0.74310   0.97920   0.90173   Biso      1.000     C          0.09854199999999999           
         C18       1.0000    0.37710   0.16540   0.03419   Biso      1.000     C          -0.18978399999999998          
         C19       1.0000    0.37550   0.02100   0.09931   Biso      1.000     C          -0.188636           
         C20       1.0000    0.37710   0.83460   0.96581   Biso      1.000     C          -0.18978399999999998          
         C21       1.0000    0.43558   0.90670   0.93273   Biso      1.000     C          0.10194600000000001           
         C22       1.0000    0.37550   0.97900   0.90069   Biso      1.000     C          -0.188636           
         C23       1.0000    0.25690   0.97920   0.90173   Biso      1.000     C          0.09854199999999999           
         C24       1.0000    0.74150   0.33480   0.53314   Biso      1.000     C          0.095462  
         C25       1.0000    0.62290   0.33460   0.53419   Biso      1.000     C          -0.18978399999999998          
         C26       1.0000    0.43558   0.09330   0.06727   Biso      1.000     C          0.10194600000000001           
         C27       1.0000    0.56442   0.40670   0.56727   Biso      1.000     C          0.10194600000000001           
         C28       1.0000    0.74310   0.47920   0.59827   Biso      1.000     C          0.09854199999999999           
         C29       1.0000    0.74150   0.66520   0.46686   Biso      1.000     C          0.095462  
         C30       1.0000    0.62290   0.66540   0.46581   Biso      1.000     C          -0.18978399999999998          
         C31       1.0000    0.56442   0.59330   0.43273   Biso      1.000     C          0.10194600000000001           
         C32       1.0000    0.62450   0.52100   0.40069   Biso      1.000     C          -0.188636           
         C33       1.0000    0.74310   0.52080   0.40173   Biso      1.000     C          0.09854199999999999           
         C34       1.0000    0.62450   0.47900   0.59931   Biso      1.000     C          -0.188636           
         C35       1.0000    0.62450   0.97900   0.90069   Biso      1.000     C          -0.188636           
         C36       1.0000    0.56442   0.90670   0.93273   Biso      1.000     C          0.10194600000000001           
         C37       1.0000    0.62290   0.83460   0.96581   Biso      1.000     C          -0.18978399999999998          
         C38       1.0000    0.00000   0.85540   0.17870   Biso      1.000     C          -0.179816           
         C39       1.0000    0.00000   0.81380   0.23920   Biso      1.000     C          -0.141724           
         C40       1.0000    0.00000   0.69780   0.13480   Biso      1.000     C          -0.276283           
         C41       1.0000    0.00000   0.65730   0.19490   Biso      1.000     C          0.332702  
         C42       1.0000    0.00000   0.71620   0.24834   Biso      1.000     C          -0.13280999999999998          
         C43       1.0000    0.00000   0.67610   0.31473   Biso      1.000     C          0.583856  
         C44       1.0000    0.00000   0.79600   0.12660   Biso      1.000     C          -0.018231999999999998         
         C45       1.0000    0.00000   0.16120   0.93980   Biso      1.000     C          0.574117  
         C46       1.0000    0.00000   0.14460   0.82130   Biso      1.000     C          -0.179816           
         C47       1.0000    0.00000   0.18620   0.76080   Biso      1.000     C          -0.141724           
         C48       1.0000    0.00000   0.30220   0.86520   Biso      1.000     C          -0.276283           
         C49       1.0000    0.00000   0.34270   0.80510   Biso      1.000     C          0.332702  
         C50       1.0000    0.00000   0.28380   0.75166   Biso      1.000     C          -0.13280999999999998          
         C51       1.0000    0.00000   0.32390   0.68527   Biso      1.000     C          0.583856  
         C52       1.0000    0.00000   0.20400   0.87340   Biso      1.000     C          -0.018231999999999998         
         C53       1.0000    0.00000   0.83880   0.06020   Biso      1.000     C          0.574117  
         C54       1.0000    0.00000   0.17610   0.18527   Biso      1.000     C          0.583858  
         C55       1.0000    0.00000   0.21620   0.25166   Biso      1.000     C          -0.132831           
         C56       1.0000    0.74150   0.83480   0.96686   Biso      1.000     C          0.095462  
         C57       1.0000    0.00000   0.66120   0.56020   Biso      1.000     C          0.5741189999999999  
         C58       1.0000    0.00000   0.70400   0.62660   Biso      1.000     C          -0.018249           
         C59       1.0000    0.00000   0.64460   0.67870   Biso      1.000     C          -0.179809           
         C60       1.0000    0.00000   0.68620   0.73920   Biso      1.000     C          -0.141725           
         C61       1.0000    0.00000   0.80220   0.63480   Biso      1.000     C          -0.27627199999999996          
         C62       1.0000    0.00000   0.84270   0.69490   Biso      1.000     C          0.332701  
         C63       1.0000    0.00000   0.78380   0.74834   Biso      1.000     C          -0.13280999999999998          
         C64       1.0000    0.00000   0.82390   0.81473   Biso      1.000     C          0.583856  
         C65       1.0000    0.00000   0.33880   0.43980   Biso      1.000     C          0.5741189999999999  
         C66       1.0000    0.00000   0.29600   0.37340   Biso      1.000     C          -0.018249           
         C67       1.0000    0.00000   0.35540   0.32130   Biso      1.000     C          -0.179811           
         C68       1.0000    0.00000   0.31380   0.26080   Biso      1.000     C          -0.141704           
         C69       1.0000    0.00000   0.19780   0.36520   Biso      1.000     C          -0.27627199999999996          
         C70       1.0000    0.00000   0.15730   0.30510   Biso      1.000     C          0.332703  
         C71       1.0000    0.25850   0.83480   0.96686   Biso      1.000     C          0.095462  
         C72       1.0000    0.25690   0.02080   0.09827   Biso      1.000     C          0.09854199999999999           
         Cd1       1.0000    0.00000   0.59869   0.43433   Biso      1.000     Cd          0.865469  
         Cd2       1.0000    0.00000   0.40131   0.56567   Biso      1.000     Cd          0.865469  
         Cd3       1.0000    0.00000   0.90131   0.93433   Biso      1.000     Cd          0.865469  
         Cd4       1.0000    0.00000   0.09869   0.06567   Biso      1.000     Cd          0.865469  
         H1        1.0000    0.00000   0.47540   0.83740   Biso      1.000     H          0.329489  
         H2        1.0000    0.41470   0.47270   0.37850   Biso      1.000     H          0.129546  
         H3        1.0000    0.21670   0.47240   0.38030   Biso      1.000     H          0.11469000000000001           
         H4        1.0000    0.21930   0.28650   0.51100   Biso      1.000     H          0.116783  
         H5        1.0000    0.41720   0.28620   0.51270   Biso      1.000     H          0.12923099999999998           
         H6        1.0000    0.41470   0.52730   0.62150   Biso      1.000     H          0.129546  
         H7        1.0000    0.21670   0.52760   0.61970   Biso      1.000     H          0.11469000000000001           
         H8        1.0000    0.21930   0.21350   0.01100   Biso      1.000     H          0.116783  
         H9        1.0000    0.41720   0.21380   0.01270   Biso      1.000     H          0.12923099999999998           
         H10       1.0000    0.41470   0.97270   0.12150   Biso      1.000     H          0.129546  
         H11       1.0000    0.21670   0.97240   0.11970   Biso      1.000     H          0.11469000000000001           
         H12       1.0000    0.21930   0.78650   0.98900   Biso      1.000     H          0.116783  
         H13       1.0000    0.41470   0.02730   0.87850   Biso      1.000     H          0.129546  
         H14       1.0000    0.41720   0.71380   0.48730   Biso      1.000     H          0.12923099999999998           
         H15       1.0000    0.21670   0.02760   0.88030   Biso      1.000     H          0.11469000000000001           
         H16       1.0000    0.78070   0.28650   0.51100   Biso      1.000     H          0.116783  
         H17       1.0000    0.58280   0.28620   0.51270   Biso      1.000     H          0.12923099999999998           
         H18       1.0000    0.58530   0.52730   0.62150   Biso      1.000     H          0.129547  
         H19       1.0000    0.78330   0.52760   0.61970   Biso      1.000     H          0.11469000000000001           
         H20       1.0000    0.78070   0.71350   0.48900   Biso      1.000     H          0.116783  
         H21       1.0000    0.58280   0.71380   0.48730   Biso      1.000     H          0.12923099999999998           
         H22       1.0000    0.58530   0.47270   0.37850   Biso      1.000     H          0.129547  
         H23       1.0000    0.78330   0.47240   0.38030   Biso      1.000     H          0.11469000000000001           
         H24       1.0000    0.00000   0.46920   0.76340   Biso      1.000     H          0.32837   
         H25       1.0000    0.21930   0.71350   0.48900   Biso      1.000     H          0.116783  
         H26       1.0000    0.41720   0.78620   0.98730   Biso      1.000     H          0.12923099999999998           
         H27       1.0000    0.58530   0.97270   0.12150   Biso      1.000     H          0.129547  
         H28       1.0000    0.78330   0.97240   0.11970   Biso      1.000     H          0.11469000000000001           
         H29       1.0000    0.00000   0.34300   0.90220   Biso      1.000     H          0.126834  
         H30       1.0000    0.00000   0.15100   0.73100   Biso      1.000     H          0.124743  
         H31       1.0000    0.00000   0.07720   0.82620   Biso      1.000     H          0.107393  
         H32       1.0000    0.00000   0.53080   0.23660   Biso      1.000     H          0.32837   
         H33       1.0000    0.00000   0.52460   0.16260   Biso      1.000     H          0.329489  
         H34       1.0000    0.00000   0.65700   0.09780   Biso      1.000     H          0.126834  
         H35       1.0000    0.00000   0.84900   0.26900   Biso      1.000     H          0.124743  
         H36       1.0000    0.00000   0.92280   0.17380   Biso      1.000     H          0.107393  
         H37       1.0000    0.00000   0.03080   0.26340   Biso      1.000     H          0.32837   
         H38       1.0000    0.00000   0.15700   0.40220   Biso      1.000     H          0.126833  
         H39       1.0000    0.00000   0.34900   0.23100   Biso      1.000     H          0.124742  
         H40       1.0000    0.00000   0.02460   0.33740   Biso      1.000     H          0.329488  
         H41       1.0000    0.00000   0.96920   0.73660   Biso      1.000     H          0.32837   
         H42       1.0000    0.00000   0.97540   0.66260   Biso      1.000     H          0.329489  
         H43       1.0000    0.00000   0.84300   0.59780   Biso      1.000     H          0.126833  
         H44       1.0000    0.00000   0.65100   0.76900   Biso      1.000     H          0.124743  
         H45       1.0000    0.00000   0.57720   0.67380   Biso      1.000     H          0.107392  
         H46       1.0000    0.78070   0.78650   0.98900   Biso      1.000     H          0.116783  
         H47       1.0000    0.58280   0.78620   0.98730   Biso      1.000     H          0.12923099999999998           
         H48       1.0000    0.00000   0.42280   0.32620   Biso      1.000     H          0.107392  
         H49       1.0000    0.58530   0.02730   0.87850   Biso      1.000     H          0.129547  
         H50       1.0000    0.78330   0.02760   0.88030   Biso      1.000     H          0.11469000000000001           
         H51       1.0000    0.78070   0.21350   0.01100   Biso      1.000     H          0.116783  
         H52       1.0000    0.58280   0.21380   0.01270   Biso      1.000     H          0.12923099999999998           
         N1        1.0000    0.00000   0.93950   0.69840   Biso      1.000     N          -0.679828           
         N2        1.0000    0.00000   0.06050   0.30160   Biso      1.000     N          -0.6798270000000001           
         N3        1.0000    0.00000   0.43950   0.80160   Biso      1.000     N          -0.6798270000000001           
         N4        1.0000    0.80160   0.90710   0.93482   Biso      1.000     N          -0.218809           
         N5        1.0000    0.00000   0.56050   0.19840   Biso      1.000     N          -0.679828           
         N6        1.0000    0.80160   0.09290   0.06518   Biso      1.000     N          -0.218809           
         N7        1.0000    0.80160   0.59290   0.43482   Biso      1.000     N          -0.218809           
         N8        1.0000    0.19840   0.40710   0.56518   Biso      1.000     N          -0.218809           
         N9        1.0000    0.19840   0.09290   0.06518   Biso      1.000     N          -0.218809           
         N10       1.0000    0.19840   0.90710   0.93482   Biso      1.000     N          -0.218809           
         N11       1.0000    0.80160   0.40710   0.56518   Biso      1.000     N          -0.218809           
         N12       1.0000    0.19840   0.59290   0.43482   Biso      1.000     N          -0.218809           
         O1        1.0000    0.00000   0.07110   0.94608   Biso      1.000     O          -0.597731           
         O2        1.0000    0.00000   0.21710   0.98625   Biso      1.000     O          -0.55694  
         O3        1.0000    0.00000   0.58740   0.32263   Biso      1.000     O          -0.578338           
         O4        1.0000    0.00000   0.73320   0.36069   Biso      1.000     O          -0.589213           
         O5        1.0000    0.00000   0.92890   0.05392   Biso      1.000     O          -0.597731           
         O6        1.0000    0.00000   0.78290   0.01375   Biso      1.000     O          -0.55694  
         O7        1.0000    0.00000   0.08740   0.17737   Biso      1.000     O          -0.578337           
         O8        1.0000    0.00000   0.42890   0.44608   Biso      1.000     O          -0.597731           
         O9        1.0000    0.00000   0.28290   0.48625   Biso      1.000     O          -0.55694  
         O10       1.0000    0.00000   0.91260   0.82263   Biso      1.000     O          -0.578337           
         O11       1.0000    0.00000   0.76680   0.86069   Biso      1.000     O          -0.589213           
         O12       1.0000    0.00000   0.57110   0.55392   Biso      1.000     O          -0.597731           
         O13       1.0000    0.00000   0.71710   0.51375   Biso      1.000     O          -0.55694  
         O14       1.0000    0.00000   0.26680   0.63931   Biso      1.000     O          -0.589213           
         O15       1.0000    0.00000   0.23320   0.13931   Biso      1.000     O          -0.589214           
         O16       1.0000    0.00000   0.41260   0.67737   Biso      1.000     O          -0.578338 