
##########################################################################
#               Crystallographic Information Format file
#               Produced by PyCifRW module
#
#  This is a CIF file.  CIF has been adopted by the International
#  Union of Crystallography as the standard for data archiving and
#  transmission.
#
#  For information on this file format, follow the CIF links at
#  http://www.iucr.org
##########################################################################

data_image0

_cell_length_a                          9.6767
_cell_length_b                          9.6767
_cell_length_c                          20.172
_cell_angle_alpha                       90
_cell_angle_beta                        90
_cell_angle_gamma                       120
_symmetry_space_group_name_H-M          'P 1'
_symmetry_int_tables_number             1
loop_
  _symmetry_equiv_pos_as_xyz
         'x, y, z' 
loop_
  _atom_site_label
  _atom_site_occupancy
  _atom_site_fract_x
  _atom_site_fract_y
  _atom_site_fract_z
  _atom_site_thermal_displace_type
  _atom_site_B_iso_or_equiv
  _atom_site_type_symbol
  _atom_site_charge
         C1        1.0000    0.20280   0.92280   0.95227   Biso      1.000     C          0.5334770000000001  
         C2        1.0000    0.32050   0.61310   0.67913   Biso      1.000     C          -0.370112           
         C3        1.0000    0.49080   0.67010   0.66224   Biso      1.000     C          0.360323  
         C4        1.0000    0.72000   0.79720   0.61893   Biso      1.000     C          0.533313  
         C5        1.0000    0.56250   0.81130   0.17547   Biso      1.000     C          0.553824  
         C6        1.0000    0.44420   0.71880   0.08387   Biso      1.000     C          0.34936799999999996           
         C7        1.0000    0.38690   0.70740   0.01247   Biso      1.000     C          -0.369992           
         C8        1.0000    0.32990   0.82070   0.99558   Biso      1.000     C          0.36016   
         C9        1.0000    0.82070   0.32990   0.00442   Biso      1.000     C          0.36016   
         C10       1.0000    0.75120   0.18870   0.49120   Biso      1.000     C          0.5539069999999999  
         C11       1.0000    0.72540   0.28120   0.58280   Biso      1.000     C          0.349279  
         C12       1.0000    0.67950   0.29260   0.65420   Biso      1.000     C          -0.370071           
         C13       1.0000    0.50920   0.17930   0.67109   Biso      1.000     C          0.360158  
         C14       1.0000    0.28000   0.07720   0.71440   Biso      1.000     C          0.533225  
         C15       1.0000    0.43750   0.24880   0.15787   Biso      1.000     C          0.553845  
         C16       1.0000    0.55580   0.27460   0.24947   Biso      1.000     C          0.34924299999999997           
         C17       1.0000    0.61310   0.32050   0.32087   Biso      1.000     C          -0.370111           
         C18       1.0000    0.67010   0.49080   0.33776   Biso      1.000     C          0.360323  
         C19       1.0000    0.79720   0.72000   0.38107   Biso      1.000     C          0.533313  
         C20       1.0000    0.81130   0.56250   0.82453   Biso      1.000     C          0.553824  
         C21       1.0000    0.71880   0.44420   0.91613   Biso      1.000     C          0.349367  
         C22       1.0000    0.70740   0.38690   0.98753   Biso      1.000     C          -0.369992           
         C23       1.0000    0.27460   0.55580   0.75053   Biso      1.000     C          0.349244  
         C24       1.0000    0.24880   0.43750   0.84213   Biso      1.000     C          0.553844  
         C25       1.0000    0.92280   0.20280   0.04773   Biso      1.000     C          0.5334770000000001  
         C26       1.0000    0.07720   0.28000   0.28560   Biso      1.000     C          0.533225  
         C27       1.0000    0.29260   0.67950   0.34580   Biso      1.000     C          -0.370071           
         C28       1.0000    0.28120   0.72540   0.41720   Biso      1.000     C          0.349279  
         C29       1.0000    0.18870   0.75120   0.50880   Biso      1.000     C          0.5539069999999999  
         C30       1.0000    0.17930   0.50920   0.32891   Biso      1.000     C          0.360158  
         H1        1.0000    0.47550   0.72720   0.98227   Biso      1.000     H          0.16033499999999998           
         H2        1.0000    0.29890   0.59720   0.00437   Biso      1.000     H          0.14688099999999998           
         H3        1.0000    0.65080   0.98920   0.43710   Biso      1.000     H          0.301979  
         H4        1.0000    0.79100   0.11960   0.40290   Biso      1.000     H          0.31531   
         H5        1.0000    0.06650   0.95620   0.75360   Biso      1.000     H          0.304948  
         H6        1.0000    0.09090   0.16370   0.20660   Biso      1.000     H          0.313062  
         H7        1.0000    0.95620   0.06650   0.24640   Biso      1.000     H          0.304948  
         H8        1.0000    0.74830   0.27280   0.68440   Biso      1.000     H          0.160369  
         H9        1.0000    0.70170   0.40280   0.66230   Biso      1.000     H          0.146905  
         H10       1.0000    0.33840   0.34920   0.10377   Biso      1.000     H          0.30198400000000003           
         H11       1.0000    0.34920   0.33840   0.89623   Biso      1.000     H          0.30198400000000003           
         H12       1.0000    0.88970   0.93350   0.42027   Biso      1.000     H          0.30500700000000003           
         H13       1.0000    0.92720   0.83630   0.46007   Biso      1.000     H          0.31304899999999997           
         H14       1.0000    0.11960   0.79100   0.59710   Biso      1.000     H          0.31531   
         H15       1.0000    0.52450   0.25170   0.35107   Biso      1.000     H          0.160347  
         H16       1.0000    0.70110   0.29830   0.32897   Biso      1.000     H          0.146912  
         H17       1.0000    0.98920   0.65080   0.56290   Biso      1.000     H          0.301979  
         H18       1.0000    0.01080   0.66160   0.77043   Biso      1.000     H          0.30221   
         H19       1.0000    0.88040   0.67140   0.73623   Biso      1.000     H          0.315366  
         H20       1.0000    0.04380   0.11030   0.08693   Biso      1.000     H          0.305091  
         H21       1.0000    0.90910   0.07280   0.12673   Biso      1.000     H          0.313006  
         H22       1.0000    0.72720   0.47550   0.01773   Biso      1.000     H          0.16033499999999998           
         H23       1.0000    0.59720   0.29890   0.99563   Biso      1.000     H          0.14688099999999998           
         H24       1.0000    0.32860   0.20900   0.06957   Biso      1.000     H          0.315286  
         H25       1.0000    0.27280   0.74830   0.31560   Biso      1.000     H          0.160369  
         H26       1.0000    0.16370   0.09090   0.79340   Biso      1.000     H          0.31306100000000003           
         H27       1.0000    0.07280   0.90910   0.87327   Biso      1.000     H          0.313006  
         H28       1.0000    0.11030   0.04380   0.91307   Biso      1.000     H          0.305091  
         H29       1.0000    0.20900   0.32860   0.93043   Biso      1.000     H          0.315286  
         H30       1.0000    0.40280   0.70170   0.33770   Biso      1.000     H          0.146904  
         H31       1.0000    0.29830   0.70110   0.67103   Biso      1.000     H          0.14691300000000002           
         H32       1.0000    0.25170   0.52450   0.64893   Biso      1.000     H          0.160347  
         H33       1.0000    0.67140   0.88040   0.26377   Biso      1.000     H          0.315366  
         H34       1.0000    0.93350   0.88970   0.57973   Biso      1.000     H          0.30500700000000003           
         H35       1.0000    0.66160   0.01080   0.22957   Biso      1.000     H          0.302209  
         H36       1.0000    0.83630   0.92720   0.53993   Biso      1.000     H          0.313048  
         N1        1.0000    0.65230   0.48340   0.82021   Biso      1.000     N          -0.33363899999999996          
         N2        1.0000    0.08650   0.74560   0.55654   Biso      1.000     N          -0.725727           
         N3        1.0000    0.18560   0.59310   0.78604   Biso      1.000     N          -0.301885           
         N4        1.0000    0.16890   0.51660   0.84645   Biso      1.000     N          -0.33363400000000004          
         N5        1.0000    0.21610   0.42110   0.28851   Biso      1.000     N          -0.466167           
         N6        1.0000    0.03100   0.42810   0.34960   Biso      1.000     N          -0.266773           
         N7        1.0000    0.90950   0.84850   0.41747   Biso      1.000     N          -0.712006           
         N8        1.0000    0.31750   0.45880   0.78212   Biso      1.000     N          -0.47587299999999993          
         N9        1.0000    0.59250   0.40690   0.88062   Biso      1.000     N          -0.301898           
         N10       1.0000    0.91350   0.65910   0.77679   Biso      1.000     N          -0.725966           
         N11       1.0000    0.84850   0.90950   0.58253   Biso      1.000     N          -0.712005           
         N12       1.0000    0.78390   0.20500   0.04482   Biso      1.000     N          -0.466203           
         N13       1.0000    0.96900   0.39710   0.98373   Biso      1.000     N          -0.266832           
         N14       1.0000    0.03880   0.31360   0.01069   Biso      1.000     N          -0.363663           
         N15       1.0000    0.93900   0.09050   0.08413   Biso      1.000     N          -0.712066           
         N16       1.0000    0.72520   0.68640   0.65597   Biso      1.000     N          -0.363597           
         N17       1.0000    0.57190   0.60290   0.68293   Biso      1.000     N          -0.266843           
         N18       1.0000    0.14130   0.68250   0.44879   Biso      1.000     N          -0.475908           
         N19       1.0000    0.40750   0.81440   0.45271   Biso      1.000     N          -0.30178499999999997          
         N20       1.0000    0.34770   0.83110   0.51312   Biso      1.000     N          -0.33379899999999996          
         N21       1.0000    0.57890   0.79500   0.62184   Biso      1.000     N          -0.466221           
         N22       1.0000    0.85870   0.54120   0.88454   Biso      1.000     N          -0.476038           
         N23       1.0000    0.68640   0.72520   0.34403   Biso      1.000     N          -0.363598           
         N24       1.0000    0.79500   0.57890   0.37816   Biso      1.000     N          -0.466221           
         N25       1.0000    0.25440   0.34090   0.88987   Biso      1.000     N          -0.725707           
         N26       1.0000    0.68250   0.14130   0.55121   Biso      1.000     N          -0.475909           
         N27       1.0000    0.74560   0.08650   0.44346   Biso      1.000     N          -0.725727           
         N28       1.0000    0.39710   0.96900   0.01627   Biso      1.000     N          -0.266832           
         N29       1.0000    0.20500   0.78390   0.95518   Biso      1.000     N          -0.466204           
         N30       1.0000    0.42110   0.21610   0.71149   Biso      1.000     N          -0.46616599999999997          
         N31       1.0000    0.42810   0.03100   0.65040   Biso      1.000     N          -0.266773           
         N32       1.0000    0.27480   0.96120   0.67736   Biso      1.000     N          -0.36359600000000003          
         N33       1.0000    0.15150   0.06100   0.75080   Biso      1.000     N          -0.711879           
         N34       1.0000    0.60290   0.57190   0.31707   Biso      1.000     N          -0.266844           
         N35       1.0000    0.65910   0.91350   0.22321   Biso      1.000     N          -0.725966           
         N36       1.0000    0.81440   0.40750   0.54729   Biso      1.000     N          -0.30178499999999997          
         N37       1.0000    0.54120   0.85870   0.11546   Biso      1.000     N          -0.476038           
         N38       1.0000    0.48340   0.65230   0.17979   Biso      1.000     N          -0.33363899999999996          
         N39       1.0000    0.06100   0.15150   0.24920   Biso      1.000     N          -0.711879           
         N40       1.0000    0.96120   0.27480   0.32264   Biso      1.000     N          -0.36359600000000003          
         N41       1.0000    0.31360   0.03880   0.98931   Biso      1.000     N          -0.363663           
         N42       1.0000    0.51660   0.16890   0.15355   Biso      1.000     N          -0.33364099999999997          
         N43       1.0000    0.59310   0.18560   0.21396   Biso      1.000     N          -0.301879           
         N44       1.0000    0.45880   0.31750   0.21788   Biso      1.000     N          -0.47587299999999993          
         N45       1.0000    0.34090   0.25440   0.11013   Biso      1.000     N          -0.725707           
         N46       1.0000    0.09050   0.93900   0.91587   Biso      1.000     N          -0.712066           
         N47       1.0000    0.40690   0.59250   0.11938   Biso      1.000     N          -0.301899           
         N48       1.0000    0.83110   0.34770   0.48688   Biso      1.000     N          -0.333798           
         Zn1       1.0000    0.50554   0.93515   0.58374   Biso      1.000     Zn          0.676575  
         Zn2       1.0000    0.49446   0.42961   0.74959   Biso      1.000     Zn          0.676549  
         Zn3       1.0000    0.42961   0.49446   0.25041   Biso      1.000     Zn          0.67655   
         Zn4       1.0000    0.57039   0.06485   0.08293   Biso      1.000     Zn          0.6765899999999999  
         Zn5       1.0000    0.06485   0.57039   0.91707   Biso      1.000     Zn          0.676589  
         Zn6       1.0000    0.93515   0.50554   0.41626   Biso      1.000     Zn          0.676574 