
##########################################################################
#               Crystallographic Information Format file
#               Produced by PyCifRW module
#
#  This is a CIF file.  CIF has been adopted by the International
#  Union of Crystallography as the standard for data archiving and
#  transmission.
#
#  For information on this file format, follow the CIF links at
#  http://www.iucr.org
##########################################################################

data_image0

_cell_length_a                          9.663
_cell_length_b                          9.663
_cell_length_c                          20.224
_cell_angle_alpha                       90
_cell_angle_beta                        90
_cell_angle_gamma                       120
_symmetry_space_group_name_H-M          'P 1'
_symmetry_int_tables_number             1
loop_
  _symmetry_equiv_pos_as_xyz
         'x, y, z' 
loop_
  _atom_site_label
  _atom_site_occupancy
  _atom_site_fract_x
  _atom_site_fract_y
  _atom_site_fract_z
  _atom_site_thermal_displace_type
  _atom_site_B_iso_or_equiv
  _atom_site_type_symbol
  _atom_site_charge
         C1        1.0000    0.20230   0.92330   0.95307   Biso      1.000     C          0.540038  
         C2        1.0000    0.32070   0.61400   0.68013   Biso      1.000     C          -0.366582           
         C3        1.0000    0.49020   0.67010   0.66343   Biso      1.000     C          0.352246  
         C4        1.0000    0.72100   0.79770   0.61973   Biso      1.000     C          0.540132  
         C5        1.0000    0.56160   0.81000   0.17567   Biso      1.000     C          0.551656  
         C6        1.0000    0.44230   0.71760   0.08417   Biso      1.000     C          0.354024  
         C7        1.0000    0.38600   0.70670   0.01347   Biso      1.000     C          -0.366601           
         C8        1.0000    0.32990   0.82010   0.99677   Biso      1.000     C          0.352486  
         C9        1.0000    0.82010   0.32990   0.00323   Biso      1.000     C          0.352488  
         C10       1.0000    0.75160   0.19000   0.49100   Biso      1.000     C          0.55166   
         C11       1.0000    0.72470   0.28240   0.58250   Biso      1.000     C          0.354128  
         C12       1.0000    0.67930   0.29330   0.65320   Biso      1.000     C          -0.366639           
         C13       1.0000    0.50980   0.17990   0.66990   Biso      1.000     C          0.35234099999999996           
         C14       1.0000    0.27900   0.07670   0.71360   Biso      1.000     C          0.539992  
         C15       1.0000    0.43840   0.24840   0.15767   Biso      1.000     C          0.551611  
         C16       1.0000    0.55770   0.27530   0.24917   Biso      1.000     C          0.353958  
         C17       1.0000    0.61400   0.32070   0.31987   Biso      1.000     C          -0.366582           
         C18       1.0000    0.67010   0.49020   0.33657   Biso      1.000     C          0.352247  
         C19       1.0000    0.79770   0.72100   0.38027   Biso      1.000     C          0.540132  
         C20       1.0000    0.81000   0.56160   0.82433   Biso      1.000     C          0.551656  
         C21       1.0000    0.71760   0.44230   0.91583   Biso      1.000     C          0.354024  
         C22       1.0000    0.70670   0.38600   0.98653   Biso      1.000     C          -0.366604           
         C23       1.0000    0.27530   0.55770   0.75083   Biso      1.000     C          0.353958  
         C24       1.0000    0.24840   0.43840   0.84233   Biso      1.000     C          0.551624  
         C25       1.0000    0.92330   0.20230   0.04693   Biso      1.000     C          0.540038  
         C26       1.0000    0.07670   0.27900   0.28640   Biso      1.000     C          0.5399930000000001  
         C27       1.0000    0.29330   0.67930   0.34680   Biso      1.000     C          -0.366638           
         C28       1.0000    0.28240   0.72470   0.41750   Biso      1.000     C          0.354128  
         C29       1.0000    0.19000   0.75160   0.50900   Biso      1.000     C          0.551662  
         C30       1.0000    0.17990   0.50980   0.33010   Biso      1.000     C          0.35234099999999996           
         H1        1.0000    0.47480   0.72640   0.98337   Biso      1.000     H          0.160028  
         H2        1.0000    0.29770   0.59650   0.00527   Biso      1.000     H          0.14766700000000002           
         H3        1.0000    0.65190   0.98770   0.43760   Biso      1.000     H          0.301618  
         H4        1.0000    0.78900   0.11910   0.40210   Biso      1.000     H          0.317986  
         H5        1.0000    0.07660   0.95510   0.76590   Biso      1.000     H          0.295509  
         H6        1.0000    0.11670   0.16490   0.21260   Biso      1.000     H          0.303319  
         H7        1.0000    0.95510   0.07660   0.23410   Biso      1.000     H          0.295509  
         H8        1.0000    0.74840   0.27360   0.68330   Biso      1.000     H          0.16003199999999998           
         H9        1.0000    0.70120   0.40350   0.66140   Biso      1.000     H          0.14767   
         H10       1.0000    0.33580   0.34810   0.10427   Biso      1.000     H          0.301676  
         H11       1.0000    0.34810   0.33580   0.89573   Biso      1.000     H          0.301676  
         H12       1.0000    0.87850   0.92340   0.43257   Biso      1.000     H          0.295575  
         H13       1.0000    0.95180   0.83510   0.45407   Biso      1.000     H          0.303234  
         H14       1.0000    0.11910   0.78900   0.59790   Biso      1.000     H          0.31798699999999996           
         H15       1.0000    0.52520   0.25160   0.34997   Biso      1.000     H          0.16003199999999998           
         H16       1.0000    0.70230   0.29880   0.32807   Biso      1.000     H          0.147636  
         H17       1.0000    0.98770   0.65190   0.56240   Biso      1.000     H          0.301618  
         H18       1.0000    0.01230   0.66420   0.77093   Biso      1.000     H          0.301639  
         H19       1.0000    0.88090   0.66990   0.73543   Biso      1.000     H          0.317967  
         H20       1.0000    0.04490   0.12150   0.09923   Biso      1.000     H          0.295576  
         H21       1.0000    0.88330   0.04820   0.12073   Biso      1.000     H          0.30328299999999997           
         H22       1.0000    0.72640   0.47480   0.01663   Biso      1.000     H          0.160028  
         H23       1.0000    0.59650   0.29770   0.99473   Biso      1.000     H          0.147668  
         H24       1.0000    0.33010   0.21100   0.06877   Biso      1.000     H          0.31794   
         H25       1.0000    0.27360   0.74840   0.31670   Biso      1.000     H          0.16003299999999998           
         H26       1.0000    0.16490   0.11670   0.78740   Biso      1.000     H          0.303319  
         H27       1.0000    0.04820   0.88330   0.87927   Biso      1.000     H          0.30328299999999997           
         H28       1.0000    0.12150   0.04490   0.90077   Biso      1.000     H          0.295576  
         H29       1.0000    0.21100   0.33010   0.93123   Biso      1.000     H          0.31793899999999997           
         H30       1.0000    0.40350   0.70120   0.33860   Biso      1.000     H          0.14767   
         H31       1.0000    0.29880   0.70230   0.67193   Biso      1.000     H          0.147636  
         H32       1.0000    0.25160   0.52520   0.65003   Biso      1.000     H          0.16003199999999998           
         H33       1.0000    0.66990   0.88090   0.26457   Biso      1.000     H          0.317967  
         H34       1.0000    0.92340   0.87850   0.56743   Biso      1.000     H          0.295575  
         H35       1.0000    0.66420   0.01230   0.22907   Biso      1.000     H          0.301639  
         H36       1.0000    0.83510   0.95180   0.54593   Biso      1.000     H          0.303234  
         N1        1.0000    0.65200   0.48230   0.81977   Biso      1.000     N          -0.330242           
         N2        1.0000    0.08670   0.74590   0.55670   Biso      1.000     N          -0.724087           
         N3        1.0000    0.18770   0.59610   0.78653   Biso      1.000     N          -0.301821           
         N4        1.0000    0.16970   0.51770   0.84689   Biso      1.000     N          -0.330271           
         N5        1.0000    0.21650   0.42000   0.28900   Biso      1.000     N          -0.474975           
         N6        1.0000    0.03010   0.42630   0.35050   Biso      1.000     N          -0.26818400000000003          
         N7        1.0000    0.90930   0.84980   0.41607   Biso      1.000     N          -0.693807           
         N8        1.0000    0.31690   0.45880   0.78233   Biso      1.000     N          -0.481537           
         N9        1.0000    0.59160   0.40390   0.88013   Biso      1.000     N          -0.30194099999999996          
         N10       1.0000    0.91330   0.65920   0.77663   Biso      1.000     N          -0.724072           
         N11       1.0000    0.84980   0.90930   0.58393   Biso      1.000     N          -0.693807           
         N12       1.0000    0.78350   0.20350   0.04433   Biso      1.000     N          -0.475095           
         N13       1.0000    0.96990   0.39620   0.98283   Biso      1.000     N          -0.268298           
         N14       1.0000    0.03940   0.31360   0.01083   Biso      1.000     N          -0.3569   
         N15       1.0000    0.94050   0.09070   0.08273   Biso      1.000     N          -0.693809           
         N16       1.0000    0.72580   0.68640   0.65583   Biso      1.000     N          -0.35701700000000003          
         N17       1.0000    0.57370   0.60380   0.68383   Biso      1.000     N          -0.26810900000000004          
         N18       1.0000    0.14190   0.68310   0.44900   Biso      1.000     N          -0.48164399999999996          
         N19       1.0000    0.40840   0.81230   0.45320   Biso      1.000     N          -0.30188200000000004          
         N20       1.0000    0.34800   0.83030   0.51356   Biso      1.000     N          -0.33029400000000003          
         N21       1.0000    0.58000   0.79650   0.62233   Biso      1.000     N          -0.47497799999999996          
         N22       1.0000    0.85810   0.54120   0.88433   Biso      1.000     N          -0.48156000000000004          
         N23       1.0000    0.68640   0.72580   0.34417   Biso      1.000     N          -0.35701700000000003          
         N24       1.0000    0.79650   0.58000   0.37767   Biso      1.000     N          -0.47497799999999996          
         N25       1.0000    0.25410   0.34080   0.89003   Biso      1.000     N          -0.7240340000000001           
         N26       1.0000    0.68310   0.14190   0.55100   Biso      1.000     N          -0.48164399999999996          
         N27       1.0000    0.74590   0.08670   0.44330   Biso      1.000     N          -0.7240850000000001           
         N28       1.0000    0.39620   0.96990   0.01717   Biso      1.000     N          -0.268298           
         N29       1.0000    0.20350   0.78350   0.95567   Biso      1.000     N          -0.47509300000000004          
         N30       1.0000    0.42000   0.21650   0.71100   Biso      1.000     N          -0.474975           
         N31       1.0000    0.42630   0.03010   0.64950   Biso      1.000     N          -0.26818400000000003          
         N32       1.0000    0.27420   0.96060   0.67750   Biso      1.000     N          -0.3569   
         N33       1.0000    0.15020   0.05950   0.74940   Biso      1.000     N          -0.693768           
         N34       1.0000    0.60380   0.57370   0.31617   Biso      1.000     N          -0.26810900000000004          
         N35       1.0000    0.65920   0.91330   0.22337   Biso      1.000     N          -0.724072           
         N36       1.0000    0.81230   0.40840   0.54680   Biso      1.000     N          -0.30188200000000004          
         N37       1.0000    0.54120   0.85810   0.11567   Biso      1.000     N          -0.48156000000000004          
         N38       1.0000    0.48230   0.65200   0.18023   Biso      1.000     N          -0.330243           
         N39       1.0000    0.05950   0.15020   0.25060   Biso      1.000     N          -0.693768           
         N40       1.0000    0.96060   0.27420   0.32250   Biso      1.000     N          -0.3569   
         N41       1.0000    0.31360   0.03940   0.98917   Biso      1.000     N          -0.356901           
         N42       1.0000    0.51770   0.16970   0.15311   Biso      1.000     N          -0.33026500000000003          
         N43       1.0000    0.59610   0.18770   0.21347   Biso      1.000     N          -0.301818           
         N44       1.0000    0.45880   0.31690   0.21767   Biso      1.000     N          -0.48153500000000005          
         N45       1.0000    0.34080   0.25410   0.10997   Biso      1.000     N          -0.7240300000000001           
         N46       1.0000    0.09070   0.94050   0.91727   Biso      1.000     N          -0.693809           
         N47       1.0000    0.40390   0.59160   0.11987   Biso      1.000     N          -0.30194099999999996          
         N48       1.0000    0.83030   0.34800   0.48644   Biso      1.000     N          -0.33029400000000003          
         Zn1       1.0000    0.50641   0.93547   0.58377   Biso      1.000     Zn          0.6741510000000001  
         Zn2       1.0000    0.49359   0.42906   0.74956   Biso      1.000     Zn          0.6740659999999999  
         Zn3       1.0000    0.42906   0.49359   0.25044   Biso      1.000     Zn          0.6740649999999999  
         Zn4       1.0000    0.57094   0.06453   0.08290   Biso      1.000     Zn          0.6741510000000001  
         Zn5       1.0000    0.06453   0.57094   0.91710   Biso      1.000     Zn          0.67415   
         Zn6       1.0000    0.93547   0.50641   0.41623   Biso      1.000     Zn          0.6741510000000001 