
##########################################################################
#               Crystallographic Information Format file
#               Produced by PyCifRW module
#
#  This is a CIF file.  CIF has been adopted by the International
#  Union of Crystallography as the standard for data archiving and
#  transmission.
#
#  For information on this file format, follow the CIF links at
#  http://www.iucr.org
##########################################################################

data_image0

_cell_length_a                          9.7682
_cell_length_b                          9.7682
_cell_length_c                          20.1
_cell_angle_alpha                       90
_cell_angle_beta                        90
_cell_angle_gamma                       120
_symmetry_space_group_name_H-M          'P 1'
_symmetry_int_tables_number             1
loop_
  _symmetry_equiv_pos_as_xyz
         'x, y, z' 
loop_
  _atom_site_label
  _atom_site_occupancy
  _atom_site_fract_x
  _atom_site_fract_y
  _atom_site_fract_z
  _atom_site_thermal_displace_type
  _atom_site_B_iso_or_equiv
  _atom_site_type_symbol
  _atom_site_charge
         C1        1.0000    0.17890   0.90010   0.95667   Biso      1.000     C          0.5319189999999999  
         C2        1.0000    0.32490   0.64520   0.68343   Biso      1.000     C          -0.369621           
         C3        1.0000    0.49320   0.69900   0.66713   Biso      1.000     C          0.357685  
         C4        1.0000    0.72120   0.82110   0.62333   Biso      1.000     C          0.531725  
         C5        1.0000    0.56130   0.79560   0.17267   Biso      1.000     C          0.549966  
         C6        1.0000    0.42610   0.69650   0.08447   Biso      1.000     C          0.351576  
         C7        1.0000    0.35480   0.67970   0.01677   Biso      1.000     C          -0.36940700000000004          
         C8        1.0000    0.30100   0.79420   0.00047   Biso      1.000     C          0.35773   
         C9        1.0000    0.79420   0.30100   0.99953   Biso      1.000     C          0.357731  
         C10       1.0000    0.76570   0.20440   0.49400   Biso      1.000     C          0.550025  
         C11       1.0000    0.72960   0.30350   0.58220   Biso      1.000     C          0.351483  
         C12       1.0000    0.67510   0.32030   0.64990   Biso      1.000     C          -0.369519           
         C13       1.0000    0.50680   0.20580   0.66620   Biso      1.000     C          0.357745  
         C14       1.0000    0.27880   0.09990   0.71000   Biso      1.000     C          0.531856  
         C15       1.0000    0.43870   0.23430   0.16067   Biso      1.000     C          0.550142  
         C16       1.0000    0.57390   0.27040   0.24887   Biso      1.000     C          0.351531  
         C17       1.0000    0.64520   0.32490   0.31657   Biso      1.000     C          -0.36961900000000003          
         C18       1.0000    0.69900   0.49320   0.33287   Biso      1.000     C          0.357686  
         C19       1.0000    0.82110   0.72120   0.37667   Biso      1.000     C          0.531725  
         C20       1.0000    0.79560   0.56130   0.82733   Biso      1.000     C          0.549966  
         C21       1.0000    0.69650   0.42610   0.91553   Biso      1.000     C          0.351576  
         C22       1.0000    0.67970   0.35480   0.98323   Biso      1.000     C          -0.36940700000000004          
         C23       1.0000    0.27040   0.57390   0.75113   Biso      1.000     C          0.351531  
         C24       1.0000    0.23430   0.43870   0.83933   Biso      1.000     C          0.550141  
         C25       1.0000    0.90010   0.17890   0.04333   Biso      1.000     C          0.5319189999999999  
         C26       1.0000    0.09990   0.27880   0.29000   Biso      1.000     C          0.531856  
         C27       1.0000    0.32030   0.67510   0.35010   Biso      1.000     C          -0.369519           
         C28       1.0000    0.30350   0.72960   0.41780   Biso      1.000     C          0.351483  
         C29       1.0000    0.20440   0.76570   0.50600   Biso      1.000     C          0.550025  
         C30       1.0000    0.20580   0.50680   0.33380   Biso      1.000     C          0.357745  
         H1        1.0000    0.43370   0.69080   0.98317   Biso      1.000     H          0.15926600000000002           
         H2        1.0000    0.26320   0.57140   0.01267   Biso      1.000     H          0.14734   
         H3        1.0000    0.66720   0.00090   0.44260   Biso      1.000     H          0.30229   
         H4        1.0000    0.80620   0.13140   0.40790   Biso      1.000     H          0.320988  
         H5        1.0000    0.10450   0.99550   0.77640   Biso      1.000     H          0.304415  
         H6        1.0000    0.16540   0.16450   0.22840   Biso      1.000     H          0.30649299999999996           
         H7        1.0000    0.99550   0.10450   0.22360   Biso      1.000     H          0.304415  
         H8        1.0000    0.74290   0.30920   0.68350   Biso      1.000     H          0.159348  
         H9        1.0000    0.69180   0.42860   0.65400   Biso      1.000     H          0.147361  
         H10       1.0000    0.33370   0.33280   0.10927   Biso      1.000     H          0.30233000000000004           
         H11       1.0000    0.33280   0.33370   0.89073   Biso      1.000     H          0.30233000000000004           
         H12       1.0000    0.89100   0.89550   0.44307   Biso      1.000     H          0.304427  
         H13       1.0000    0.00090   0.83550   0.43827   Biso      1.000     H          0.30646799999999996           
         H14       1.0000    0.13140   0.80620   0.59210   Biso      1.000     H          0.320988  
         H15       1.0000    0.56630   0.25710   0.35017   Biso      1.000     H          0.159392  
         H16       1.0000    0.73680   0.30820   0.32067   Biso      1.000     H          0.147386  
         H17       1.0000    0.00090   0.66720   0.55740   Biso      1.000     H          0.30229   
         H18       1.0000    0.99910   0.66630   0.77593   Biso      1.000     H          0.302241  
         H19       1.0000    0.86860   0.67480   0.74123   Biso      1.000     H          0.320884  
         H20       1.0000    0.00450   0.10900   0.10973   Biso      1.000     H          0.304399  
         H21       1.0000    0.83460   0.99910   0.10493   Biso      1.000     H          0.306425  
         H22       1.0000    0.69080   0.43370   0.01683   Biso      1.000     H          0.15926600000000002           
         H23       1.0000    0.57140   0.26320   0.98733   Biso      1.000     H          0.14734   
         H24       1.0000    0.32520   0.19380   0.07457   Biso      1.000     H          0.32101   
         H25       1.0000    0.30920   0.74290   0.31650   Biso      1.000     H          0.159348  
         H26       1.0000    0.16450   0.16540   0.77160   Biso      1.000     H          0.30649299999999996           
         H27       1.0000    0.99910   0.83460   0.89507   Biso      1.000     H          0.306425  
         H28       1.0000    0.10900   0.00450   0.89027   Biso      1.000     H          0.304399  
         H29       1.0000    0.19380   0.32520   0.92543   Biso      1.000     H          0.32101   
         H30       1.0000    0.42860   0.69180   0.34600   Biso      1.000     H          0.147361  
         H31       1.0000    0.30820   0.73680   0.67933   Biso      1.000     H          0.147386  
         H32       1.0000    0.25710   0.56630   0.64983   Biso      1.000     H          0.159394  
         H33       1.0000    0.67480   0.86860   0.25877   Biso      1.000     H          0.320884  
         H34       1.0000    0.89550   0.89100   0.55693   Biso      1.000     H          0.30442600000000003           
         H35       1.0000    0.66630   0.99910   0.22407   Biso      1.000     H          0.302241  
         H36       1.0000    0.83550   0.00090   0.56173   Biso      1.000     H          0.30646799999999996           
         N1        1.0000    0.63870   0.48790   0.82163   Biso      1.000     N          -0.336991           
         N2        1.0000    0.09890   0.76170   0.55120   Biso      1.000     N          -0.717094           
         N3        1.0000    0.17420   0.60060   0.78703   Biso      1.000     N          -0.299763           
         N4        1.0000    0.15080   0.51210   0.84503   Biso      1.000     N          -0.337045           
         N5        1.0000    0.24020   0.41770   0.29290   Biso      1.000     N          -0.47579499999999997          
         N6        1.0000    0.05790   0.42730   0.35480   Biso      1.000     N          -0.271924           
         N7        1.0000    0.93130   0.84890   0.41327   Biso      1.000     N          -0.700151           
         N8        1.0000    0.31070   0.47220   0.78093   Biso      1.000     N          -0.48460600000000004          
         N9        1.0000    0.57360   0.39940   0.87963   Biso      1.000     N          -0.299809           
         N10       1.0000    0.90110   0.66280   0.78213   Biso      1.000     N          -0.716918           
         N11       1.0000    0.84890   0.93130   0.58673   Biso      1.000     N          -0.70015  
         N12       1.0000    0.75980   0.17750   0.04043   Biso      1.000     N          -0.475857           
         N13       1.0000    0.94210   0.36940   0.97853   Biso      1.000     N          -0.271897           
         N14       1.0000    0.01400   0.28970   0.00643   Biso      1.000     N          -0.348672           
         N15       1.0000    0.91760   0.06870   0.07993   Biso      1.000     N          -0.7000850000000001           
         N16       1.0000    0.72430   0.71030   0.66023   Biso      1.000     N          -0.348551           
         N17       1.0000    0.57270   0.63060   0.68813   Biso      1.000     N          -0.271946           
         N18       1.0000    0.16150   0.68930   0.44760   Biso      1.000     N          -0.484545           
         N19       1.0000    0.42640   0.82580   0.45370   Biso      1.000     N          -0.29982  
         N20       1.0000    0.36130   0.84920   0.51170   Biso      1.000     N          -0.336884           
         N21       1.0000    0.58230   0.82250   0.62623   Biso      1.000     N          -0.47562  
         N22       1.0000    0.83850   0.52780   0.88573   Biso      1.000     N          -0.48456400000000005          
         N23       1.0000    0.71030   0.72430   0.33977   Biso      1.000     N          -0.348551           
         N24       1.0000    0.82250   0.58230   0.37377   Biso      1.000     N          -0.47562  
         N25       1.0000    0.23830   0.33720   0.88453   Biso      1.000     N          -0.717173           
         N26       1.0000    0.68930   0.16150   0.55240   Biso      1.000     N          -0.484546           
         N27       1.0000    0.76170   0.09890   0.44880   Biso      1.000     N          -0.717094           
         N28       1.0000    0.36940   0.94210   0.02147   Biso      1.000     N          -0.271897           
         N29       1.0000    0.17750   0.75980   0.95957   Biso      1.000     N          -0.475857           
         N30       1.0000    0.41770   0.24020   0.70710   Biso      1.000     N          -0.47579499999999997          
         N31       1.0000    0.42730   0.05790   0.64520   Biso      1.000     N          -0.271924           
         N32       1.0000    0.27570   0.98600   0.67310   Biso      1.000     N          -0.348607           
         N33       1.0000    0.15110   0.08240   0.74660   Biso      1.000     N          -0.700202           
         N34       1.0000    0.63060   0.57270   0.31187   Biso      1.000     N          -0.271947           
         N35       1.0000    0.66280   0.90110   0.21787   Biso      1.000     N          -0.716918           
         N36       1.0000    0.82580   0.42640   0.54630   Biso      1.000     N          -0.29982  
         N37       1.0000    0.52780   0.83850   0.11427   Biso      1.000     N          -0.48456400000000005          
         N38       1.0000    0.48790   0.63870   0.17837   Biso      1.000     N          -0.336992           
         N39       1.0000    0.08240   0.15110   0.25340   Biso      1.000     N          -0.700202           
         N40       1.0000    0.98600   0.27570   0.32690   Biso      1.000     N          -0.34860599999999997          
         N41       1.0000    0.28970   0.01400   0.99357   Biso      1.000     N          -0.348672           
         N42       1.0000    0.51210   0.15080   0.15497   Biso      1.000     N          -0.337049           
         N43       1.0000    0.60060   0.17420   0.21297   Biso      1.000     N          -0.299759           
         N44       1.0000    0.47220   0.31070   0.21907   Biso      1.000     N          -0.48460600000000004          
         N45       1.0000    0.33720   0.23830   0.11547   Biso      1.000     N          -0.717173           
         N46       1.0000    0.06870   0.91760   0.92007   Biso      1.000     N          -0.7000850000000001           
         N47       1.0000    0.39940   0.57360   0.12037   Biso      1.000     N          -0.299809           
         N48       1.0000    0.84920   0.36130   0.48830   Biso      1.000     N          -0.336883           
         Zn1       1.0000    0.51032   0.95877   0.58435   Biso      1.000     Zn          0.672346  
         Zn2       1.0000    0.48968   0.44845   0.74898   Biso      1.000     Zn          0.672458  
         Zn3       1.0000    0.44845   0.48968   0.25102   Biso      1.000     Zn          0.672459  
         Zn4       1.0000    0.55155   0.04123   0.08232   Biso      1.000     Zn          0.672413  
         Zn5       1.0000    0.04123   0.55155   0.91768   Biso      1.000     Zn          0.672412  
         Zn6       1.0000    0.95877   0.51032   0.41565   Biso      1.000     Zn          0.672345 