
##########################################################################
#               Crystallographic Information Format file
#               Produced by PyCifRW module
#
#  This is a CIF file.  CIF has been adopted by the International
#  Union of Crystallography as the standard for data archiving and
#  transmission.
#
#  For information on this file format, follow the CIF links at
#  http://www.iucr.org
##########################################################################

data_image0

_cell_length_a                          7.544
_cell_length_b                          14.7297
_cell_length_c                          14.7297
_cell_angle_alpha                       116.916
_cell_angle_beta                        104.428
_cell_angle_gamma                       75.5721
_symmetry_space_group_name_H-M          'P 1'
_symmetry_int_tables_number             1
loop_
  _symmetry_equiv_pos_as_xyz
         'x, y, z' 
loop_
  _atom_site_label
  _atom_site_occupancy
  _atom_site_fract_x
  _atom_site_fract_y
  _atom_site_fract_z
  _atom_site_thermal_displace_type
  _atom_site_B_iso_or_equiv
  _atom_site_type_symbol
  _atom_site_charge
         C1        1.0000    0.11980   0.98980   0.43560   Biso      1.000     C          -0.18040799999999999          
         C2        1.0000    0.58240   0.12980   0.90840   Biso      1.000     C          -0.121307           
         C3        1.0000    0.71510   0.07600   0.96100   Biso      1.000     C          -0.09686900000000001          
         C4        1.0000    0.79280   0.97600   0.90780   Biso      1.000     C          -0.0152   
         C5        1.0000    0.74180   0.92860   0.80100   Biso      1.000     C          -0.103773           
         C6        1.0000    0.96430   0.72060   0.03700   Biso      1.000     C          0.567214  
         C7        1.0000    0.02810   0.61090   0.96550   Biso      1.000     C          -0.018344           
         C8        1.0000    0.95220   0.57300   0.86400   Biso      1.000     C          -0.10725  
         C9        1.0000    0.00950   0.46990   0.79610   Biso      1.000     C          -0.1553   
         C10       1.0000    0.14100   0.40510   0.83310   Biso      1.000     C          0.0443    
         C11       1.0000    0.94350   0.92210   0.96270   Biso      1.000     C          0.563487  
         C12       1.0000    0.16270   0.54510   0.00390   Biso      1.000     C          -0.115454           
         C13       1.0000    0.19940   0.29480   0.76420   Biso      1.000     C          0.207027  
         C14       1.0000    0.12020   0.24970   0.66130   Biso      1.000     C          -0.245903           
         C15       1.0000    0.17290   0.14640   0.60220   Biso      1.000     C          0.124155  
         C16       1.0000    0.08630   0.09500   0.49340   Biso      1.000     C          0.11663399999999999           
         C17       1.0000    0.96400   0.15030   0.44250   Biso      1.000     C          -0.188622           
         C18       1.0000    0.87940   0.09810   0.34030   Biso      1.000     C          0.10231799999999999           
         C19       1.0000    0.03200   0.94450   0.33670   Biso      1.000     C          0.09993099999999999           
         C20       1.0000    0.60850   0.98190   0.74690   Biso      1.000     C          -0.15344000000000002          
         C21       1.0000    0.30280   0.09090   0.64990   Biso      1.000     C          -0.235183           
         C22       1.0000    0.21680   0.44530   0.93810   Biso      1.000     C          -0.130829           
         C23       1.0000    0.46430   0.96300   0.27940   Biso      1.000     C          0.567206  
         C24       1.0000    0.52810   0.03450   0.38910   Biso      1.000     C          -0.018355           
         C25       1.0000    0.45220   0.13600   0.42700   Biso      1.000     C          -0.10725499999999999          
         C26       1.0000    0.44350   0.03730   0.07790   Biso      1.000     C          0.563483  
         C27       1.0000    0.08240   0.09160   0.87020   Biso      1.000     C          -0.121314           
         C28       1.0000    0.21510   0.03900   0.92400   Biso      1.000     C          -0.096853           
         C29       1.0000    0.29280   0.09220   0.02400   Biso      1.000     C          -0.015201           
         C30       1.0000    0.24180   0.19900   0.07140   Biso      1.000     C          -0.10377  
         C31       1.0000    0.10850   0.25310   0.01810   Biso      1.000     C          -0.153449           
         C32       1.0000    0.02660   0.19490   0.91770   Biso      1.000     C          0.053878999999999996          
         C33       1.0000    0.88160   0.24850   0.86170   Biso      1.000     C          0.227654  
         C34       1.0000    0.80280   0.35010   0.90910   Biso      1.000     C          -0.235198           
         C35       1.0000    0.61980   0.56440   0.01020   Biso      1.000     C          -0.18040599999999998          
         C36       1.0000    0.53200   0.66330   0.05550   Biso      1.000     C          0.09993099999999999           
         C37       1.0000    0.37940   0.65970   0.90190   Biso      1.000     C          0.102325  
         C38       1.0000    0.46400   0.55750   0.84970   Biso      1.000     C          -0.188625           
         C39       1.0000    0.58630   0.50660   0.90500   Biso      1.000     C          0.116632  
         C40       1.0000    0.67290   0.39780   0.85360   Biso      1.000     C          0.12415799999999999           
         C41       1.0000    0.62020   0.33870   0.75030   Biso      1.000     C          -0.245901           
         C42       1.0000    0.69940   0.23580   0.70520   Biso      1.000     C          0.207025  
         C43       1.0000    0.71680   0.06190   0.55470   Biso      1.000     C          -0.130838           
         C44       1.0000    0.66270   0.99610   0.45490   Biso      1.000     C          -0.11542999999999999          
         C45       1.0000    0.64100   0.16690   0.59490   Biso      1.000     C          0.044301  
         C46       1.0000    0.50950   0.20390   0.53010   Biso      1.000     C          -0.15529400000000002          
         C47       1.0000    0.38160   0.13830   0.75150   Biso      1.000     C          0.227625  
         C48       1.0000    0.52660   0.08230   0.80510   Biso      1.000     C          0.053888  
         Cd1       1.0000    0.75157   0.91890   0.13262   Biso      1.000     Cd          0.9512139999999999  
         Cd2       1.0000    0.25157   0.86738   0.08110   Biso      1.000     Cd          0.951216  
         H1        1.0000    0.03300   0.05500   0.80180   Biso      1.000     H          0.11208299999999999           
         H2        1.0000    0.86140   0.61530   0.83890   Biso      1.000     H          0.121993  
         H3        1.0000    0.95870   0.44570   0.72650   Biso      1.000     H          0.11252100000000001           
         H4        1.0000    0.21410   0.56970   0.07330   Biso      1.000     H          0.11808099999999999           
         H5        1.0000    0.30630   0.40280   0.96380   Biso      1.000     H          0.113254  
         H6        1.0000    0.03100   0.28940   0.63220   Biso      1.000     H          0.122326  
         H7        1.0000    0.93760   0.22170   0.47570   Biso      1.000     H          0.12598900000000002           
         H8        1.0000    0.79670   0.13700   0.30780   Biso      1.000     H          0.102727  
         H9        1.0000    0.20420   0.94870   0.46490   Biso      1.000     H          0.124215  
         H10       1.0000    0.33780   0.02050   0.61290   Biso      1.000     H          0.12369400000000001           
         H11       1.0000    0.57710   0.95110   0.67550   Biso      1.000     H          0.11519800000000001           
         H12       1.0000    0.79550   0.86110   0.76450   Biso      1.000     H          0.11354600000000001           
         H13       1.0000    0.74980   0.10870   0.03210   Biso      1.000     H          0.12163399999999999           
         H14       1.0000    0.05850   0.87320   0.30180   Biso      1.000     H          0.098441  
         H15       1.0000    0.36140   0.16110   0.38470   Biso      1.000     H          0.121992  
         H16       1.0000    0.24980   0.96790   0.89130   Biso      1.000     H          0.121624  
         H17       1.0000    0.53300   0.19820   0.94500   Biso      1.000     H          0.11208299999999999           
         H18       1.0000    0.07710   0.32450   0.04890   Biso      1.000     H          0.115202  
         H19       1.0000    0.83780   0.38710   0.97950   Biso      1.000     H          0.123696  
         H20       1.0000    0.70420   0.53510   0.05130   Biso      1.000     H          0.124215  
         H21       1.0000    0.55850   0.69820   0.12680   Biso      1.000     H          0.09844   
         H22       1.0000    0.29550   0.23550   0.13890   Biso      1.000     H          0.11354500000000001           
         H23       1.0000    0.43760   0.52430   0.77830   Biso      1.000     H          0.12599000000000002           
         H24       1.0000    0.53100   0.36780   0.71060   Biso      1.000     H          0.122326  
         H25       1.0000    0.80630   0.03620   0.59720   Biso      1.000     H          0.113254  
         H26       1.0000    0.71410   0.92670   0.43030   Biso      1.000     H          0.118078  
         H27       1.0000    0.45870   0.27350   0.55430   Biso      1.000     H          0.112524  
         H28       1.0000    0.29670   0.69220   0.86300   Biso      1.000     H          0.102724  
         N1        1.0000    0.41160   0.71240   0.00360   Biso      1.000     N          -0.206098           
         N2        1.0000    0.82690   0.19070   0.76150   Biso      1.000     N          -0.33366999999999997          
         N3        1.0000    0.32690   0.23850   0.80930   Biso      1.000     N          -0.33366399999999996          
         N4        1.0000    0.91160   0.99640   0.28760   Biso      1.000     N          -0.20609899999999998          
         O1        1.0000    0.45780   0.93930   0.04050   Biso      1.000     O          -0.5844550000000001           
         O2        1.0000    0.80570   0.76080   0.01420   Biso      1.000     O          -0.508807           
         O3        1.0000    0.08270   0.76850   0.11470   Biso      1.000     O          -0.629849           
         O4        1.0000    0.95780   0.95950   0.06070   Biso      1.000     O          -0.5844560000000001           
         O5        1.0000    0.05330   0.84590   0.91270   Biso      1.000     O          -0.552744           
         O6        1.0000    0.30570   0.98580   0.23920   Biso      1.000     O          -0.508798           
         O7        1.0000    0.58270   0.88530   0.23150   Biso      1.000     O          -0.629847           
         O8        1.0000    0.55330   0.08730   0.15410   Biso      1.000     O          -0.552743 