
##########################################################################
#               Crystallographic Information Format file
#               Produced by PyCifRW module
#
#  This is a CIF file.  CIF has been adopted by the International
#  Union of Crystallography as the standard for data archiving and
#  transmission.
#
#  For information on this file format, follow the CIF links at
#  http://www.iucr.org
##########################################################################

data_image0

_cell_length_a                          14.2166
_cell_length_b                          14.2166
_cell_length_c                          15.8302
_cell_angle_alpha                       82.483
_cell_angle_beta                        65.0575
_cell_angle_gamma                       112.629
_symmetry_space_group_name_H-M          'P 1'
_symmetry_int_tables_number             1
loop_
  _symmetry_equiv_pos_as_xyz
         'x, y, z' 
loop_
  _atom_site_label
  _atom_site_occupancy
  _atom_site_fract_x
  _atom_site_fract_y
  _atom_site_fract_z
  _atom_site_thermal_displace_type
  _atom_site_B_iso_or_equiv
  _atom_site_type_symbol
  _atom_site_charge
         C1        1.0000    0.19770   0.76890   0.40500   Biso      1.000     C          -0.23157199999999997          
         C2        1.0000    0.75640   0.29340   0.57200   Biso      1.000     C          0.2823    
         C3        1.0000    0.80230   0.23110   0.59500   Biso      1.000     C          -0.23157199999999997          
         C4        1.0000    0.75030   0.36220   0.69950   Biso      1.000     C          0.22226500000000002           
         C5        1.0000    0.69030   0.29190   0.79640   Biso      1.000     C          -0.024114           
         C6        1.0000    0.73590   0.31580   0.85730   Biso      1.000     C          -0.122552           
         C7        1.0000    0.84220   0.40880   0.82200   Biso      1.000     C          -0.028544999999999997         
         C8        1.0000    0.90050   0.47990   0.72580   Biso      1.000     C          -0.048568           
         C9        1.0000    0.85460   0.45750   0.66570   Biso      1.000     C          -0.19300799999999999          
         C10       1.0000    0.89000   0.11150   0.56050   Biso      1.000     C          0.648678  
         C11       1.0000    0.79980   0.27910   0.32350   Biso      1.000     C          0.585025  
         C12       1.0000    0.89660   0.43070   0.88630   Biso      1.000     C          0.668534  
         C13       1.0000    0.21170   0.37650   0.96980   Biso      1.000     C          -0.006152           
         C14       1.0000    0.75250   0.30770   0.48600   Biso      1.000     C          -0.192726           
         C15       1.0000    0.13840   0.28760   0.05880   Biso      1.000     C          -0.155574           
         C16       1.0000    0.29370   0.23850   0.01400   Biso      1.000     C          -0.192828           
         C17       1.0000    0.36540   0.32840   0.92800   Biso      1.000     C          0.28127399999999997           
         C18       1.0000    0.32610   0.39730   0.90500   Biso      1.000     C          -0.23157399999999997          
         C19       1.0000    0.56170   0.44980   0.80050   Biso      1.000     C          0.22451100000000002           
         C20       1.0000    0.58830   0.48670   0.70360   Biso      1.000     C          -0.025948000000000002         
         C21       1.0000    0.67310   0.59320   0.64270   Biso      1.000     C          -0.124801           
         C22       1.0000    0.73080   0.66420   0.67800   Biso      1.000     C          -0.027205           
         C23       1.0000    0.70570   0.62630   0.77420   Biso      1.000     C          -0.048399           
         C24       1.0000    0.62320   0.52030   0.83430   Biso      1.000     C          -0.194955           
         C25       1.0000    0.17200   0.45050   0.93950   Biso      1.000     C          0.646938  
         C26       1.0000    0.10260   0.12330   0.17650   Biso      1.000     C          0.584275  
         C27       1.0000    0.81700   0.78290   0.61370   Biso      1.000     C          0.666783  
         C28       1.0000    0.17990   0.21810   0.08060   Biso      1.000     C          0.013771  
         C29       1.0000    0.79870   0.26050   0.41940   Biso      1.000     C          0.012118  
         C30       1.0000    0.84640   0.19720   0.44120   Biso      1.000     C          -0.156327           
         C31       1.0000    0.84630   0.18150   0.53020   Biso      1.000     C          -0.00532  
         C32       1.0000    0.18300   0.21710   0.38630   Biso      1.000     C          0.666783  
         C33       1.0000    0.89740   0.87670   0.82350   Biso      1.000     C          0.584275  
         C34       1.0000    0.82800   0.54950   0.06050   Biso      1.000     C          0.646938  
         C35       1.0000    0.37680   0.47970   0.16570   Biso      1.000     C          -0.194964           
         C36       1.0000    0.29430   0.37370   0.22580   Biso      1.000     C          -0.048392000000000004         
         C37       1.0000    0.26920   0.33580   0.32200   Biso      1.000     C          -0.027207           
         C38       1.0000    0.32690   0.40680   0.35730   Biso      1.000     C          -0.12479900000000001          
         C39       1.0000    0.41170   0.51330   0.29640   Biso      1.000     C          -0.025947           
         C40       1.0000    0.43830   0.55020   0.19950   Biso      1.000     C          0.224514  
         C41       1.0000    0.67390   0.60270   0.09500   Biso      1.000     C          -0.231575           
         C42       1.0000    0.63460   0.67160   0.07200   Biso      1.000     C          0.281271  
         C43       1.0000    0.70630   0.76150   0.98600   Biso      1.000     C          -0.192824           
         C44       1.0000    0.82010   0.78190   0.91940   Biso      1.000     C          0.013771  
         C45       1.0000    0.86160   0.71240   0.94120   Biso      1.000     C          -0.155574           
         C46       1.0000    0.78830   0.62350   0.03020   Biso      1.000     C          -0.006151           
         C47       1.0000    0.10340   0.56930   0.11370   Biso      1.000     C          0.668534  
         C48       1.0000    0.20020   0.72090   0.67650   Biso      1.000     C          0.585026  
         C49       1.0000    0.11000   0.88850   0.43950   Biso      1.000     C          0.648678  
         C50       1.0000    0.14540   0.54250   0.33430   Biso      1.000     C          -0.193012           
         C51       1.0000    0.09950   0.52010   0.27420   Biso      1.000     C          -0.048566000000000005         
         C52       1.0000    0.15780   0.59120   0.17800   Biso      1.000     C          -0.028546           
         C53       1.0000    0.26410   0.68420   0.14270   Biso      1.000     C          -0.122549           
         C54       1.0000    0.30970   0.70810   0.20360   Biso      1.000     C          -0.024115           
         C55       1.0000    0.24970   0.63780   0.30050   Biso      1.000     C          0.222266  
         C56       1.0000    0.24360   0.70660   0.42800   Biso      1.000     C          0.282301  
         C57       1.0000    0.24750   0.69230   0.51400   Biso      1.000     C          -0.192726           
         C58       1.0000    0.20130   0.73950   0.58060   Biso      1.000     C          0.012118  
         C59       1.0000    0.15370   0.81850   0.46980   Biso      1.000     C          -0.00532  
         C60       1.0000    0.15360   0.80280   0.55880   Biso      1.000     C          -0.156327           
         Ce1       1.0000    0.85928   0.35910   0.12150   Biso      1.000     Ce          2.068404  
         Ce2       1.0000    0.98060   0.98078   0.37850   Biso      1.000     Ce          2.069436  
         Ce3       1.0000    0.14072   0.64090   0.87850   Biso      1.000     Ce          2.068404  
         Ce4       1.0000    0.01940   0.01922   0.62150   Biso      1.000     Ce          2.069435  
         H1        1.0000    0.25400   0.32560   0.20120   Biso      1.000     H          0.118801  
         H2        1.0000    0.39180   0.50510   0.10030   Biso      1.000     H          0.142903  
         H3        1.0000    0.71860   0.34930   0.47230   Biso      1.000     H          0.157379  
         H4        1.0000    0.80380   0.22230   0.65490   Biso      1.000     H          0.13608800000000001           
         H5        1.0000    0.69370   0.26770   0.92400   Biso      1.000     H          0.14109100000000002           
         H6        1.0000    0.97320   0.54480   0.70120   Biso      1.000     H          0.11766199999999999           
         H7        1.0000    0.89460   0.50790   0.60030   Biso      1.000     H          0.142697  
         H8        1.0000    0.06080   0.27410   0.10430   Biso      1.000     H          0.12046099999999998           
         H9        1.0000    0.32160   0.19090   0.02770   Biso      1.000     H          0.157596  
         H10       1.0000    0.37720   0.45870   0.84510   Biso      1.000     H          0.13636600000000001           
         H11       1.0000    0.69170   0.61770   0.57600   Biso      1.000     H          0.141576  
         H12       1.0000    0.87840   0.16510   0.39570   Biso      1.000     H          0.121058  
         H13       1.0000    0.60820   0.49490   0.89970   Biso      1.000     H          0.142902  
         H14       1.0000    0.62280   0.54130   0.15490   Biso      1.000     H          0.13636600000000001           
         H15       1.0000    0.67840   0.80910   0.97230   Biso      1.000     H          0.157596  
         H16       1.0000    0.74600   0.67440   0.79880   Biso      1.000     H          0.118801  
         H17       1.0000    0.93920   0.72590   0.89570   Biso      1.000     H          0.12046099999999998           
         H18       1.0000    0.10540   0.49210   0.39970   Biso      1.000     H          0.142697  
         H19       1.0000    0.30830   0.38230   0.42400   Biso      1.000     H          0.141576  
         H20       1.0000    0.30630   0.73230   0.07600   Biso      1.000     H          0.14109100000000002           
         H21       1.0000    0.19620   0.77770   0.34510   Biso      1.000     H          0.13608800000000001           
         H22       1.0000    0.28140   0.65070   0.52770   Biso      1.000     H          0.157379  
         H23       1.0000    0.12160   0.83490   0.60430   Biso      1.000     H          0.121058  
         H24       1.0000    0.02680   0.45520   0.29880   Biso      1.000     H          0.11766199999999999           
         N1        1.0000    0.57860   0.19010   0.83850   Biso      1.000     N          0.54488   
         N2        1.0000    0.52860   0.41710   0.66150   Biso      1.000     N          0.543623  
         N3        1.0000    0.42140   0.80990   0.16150   Biso      1.000     N          0.54488   
         N4        1.0000    0.47140   0.58290   0.33850   Biso      1.000     N          0.543623  
         O1        1.0000    0.45010   0.84640   0.21730   Biso      1.000     O          -0.33032100000000003          
         O2        1.0000    0.48160   0.85370   0.07110   Biso      1.000     O          -0.339758           
         O3        1.0000    0.15240   0.75960   0.73860   Biso      1.000     O          -0.6598390000000001           
         O4        1.0000    0.16510   0.63070   0.02520   Biso      1.000     O          -0.682068           
         O5        1.0000    0.08203   0.94557   0.48940   Biso      1.000     O          -0.7512770000000001           
         O6        1.0000    0.24555   0.66615   0.69290   Biso      1.000     O          -0.6144029999999999           
         O7        1.0000    0.99990   0.49100   0.15570   Biso      1.000     O          -0.641858           
         O8        1.0000    0.42480   0.55270   0.42890   Biso      1.000     O          -0.338471           
         O9        1.0000    0.75250   0.46550   0.13660   Biso      1.000     O          -0.595561           
         O10       1.0000    0.93497   0.57143   0.01060   Biso      1.000     O          -0.750125           
         O11       1.0000    0.99820   0.89100   0.76140   Biso      1.000     O          -0.660778           
         O12       1.0000    0.85905   0.93845   0.80710   Biso      1.000     O          -0.613777           
         O13       1.0000    0.56370   0.66740   0.28270   Biso      1.000     O          -0.329333           
         O14       1.0000    0.15590   0.19030   0.47480   Biso      1.000     O          -0.681355           
         O15       1.0000    0.10210   0.88910   0.36340   Biso      1.000     O          -0.596696           
         O16       1.0000    0.29060   0.65620   0.36560   Biso      1.000     O          -0.229922           
         O17       1.0000    0.47820   0.34380   0.86560   Biso      1.000     O          -0.229675           
         O18       1.0000    0.84760   0.24040   0.26140   Biso      1.000     O          -0.6598390000000001           
         O19       1.0000    0.84410   0.80970   0.52520   Biso      1.000     O          -0.681355           
         O20       1.0000    0.14670   0.15560   0.34430   Biso      1.000     O          -0.641109           
         O21       1.0000    0.89790   0.11090   0.63660   Biso      1.000     O          -0.596696           
         O22       1.0000    0.91797   0.05443   0.51060   Biso      1.000     O          -0.7512770000000001           
         O23       1.0000    0.75445   0.33385   0.30710   Biso      1.000     O          -0.6144029999999999           
         O24       1.0000    0.54990   0.15360   0.78270   Biso      1.000     O          -0.33032100000000003          
         O25       1.0000    0.51840   0.14630   0.92890   Biso      1.000     O          -0.339758           
         O26       1.0000    0.83490   0.36930   0.97480   Biso      1.000     O          -0.682068           
         O27       1.0000    0.00010   0.50900   0.84430   Biso      1.000     O          -0.641858           
         O28       1.0000    0.70940   0.34380   0.63440   Biso      1.000     O          -0.22992100000000001          
         O29       1.0000    0.24750   0.53450   0.86340   Biso      1.000     O          -0.595561           
         O30       1.0000    0.06503   0.42857   0.98940   Biso      1.000     O          -0.750125           
         O31       1.0000    0.00180   0.10900   0.23860   Biso      1.000     O          -0.660778           
         O32       1.0000    0.14095   0.06155   0.19290   Biso      1.000     O          -0.613777           
         O33       1.0000    0.43630   0.33260   0.71730   Biso      1.000     O          -0.329333           
         O34       1.0000    0.57520   0.44730   0.57110   Biso      1.000     O          -0.338471           
         O35       1.0000    0.85330   0.84440   0.65570   Biso      1.000     O          -0.641109           
         O36       1.0000    0.52180   0.65620   0.13440   Biso      1.000     O          -0.229675 