
##########################################################################
#               Crystallographic Information Format file
#               Produced by PyCifRW module
#
#  This is a CIF file.  CIF has been adopted by the International
#  Union of Crystallography as the standard for data archiving and
#  transmission.
#
#  For information on this file format, follow the CIF links at
#  http://www.iucr.org
##########################################################################

data_image0

_cell_length_a                          7.6835
_cell_length_b                          8.6805
_cell_length_c                          12.354
_cell_angle_alpha                       90
_cell_angle_beta                        90
_cell_angle_gamma                       90
_symmetry_space_group_name_H-M          'P 1'
_symmetry_int_tables_number             1
loop_
  _symmetry_equiv_pos_as_xyz
         'x, y, z' 
loop_
  _atom_site_label
  _atom_site_occupancy
  _atom_site_fract_x
  _atom_site_fract_y
  _atom_site_fract_z
  _atom_site_thermal_displace_type
  _atom_site_B_iso_or_equiv
  _atom_site_type_symbol
  _atom_site_charge
         Ag1       1.0000    0.00000   0.50000   0.00000   Biso      1.000     Ag          0.513883  
         C1        1.0000    0.38590   0.73160   0.18090   Biso      1.000     C          -0.573757           
         C2        1.0000    0.01680   0.22150   0.34710   Biso      1.000     C          -0.5645100000000001           
         C3        1.0000    0.38590   0.26840   0.81910   Biso      1.000     C          -0.573756           
         C4        1.0000    0.78900   0.19200   0.64450   Biso      1.000     C          0.48799499999999996           
         C5        1.0000    0.50590   0.78920   0.72620   Biso      1.000     C          0.48468100000000003           
         C6        1.0000    0.32320   0.77220   0.73070   Biso      1.000     C          -0.33705100000000005          
         C7        1.0000    0.24540   0.70420   0.82380   Biso      1.000     C          0.31689   
         C8        1.0000    0.32320   0.22780   0.26930   Biso      1.000     C          -0.33705799999999997          
         C9        1.0000    0.78900   0.80800   0.35550   Biso      1.000     C          0.487993  
         C10       1.0000    0.50590   0.21080   0.27380   Biso      1.000     C          0.484678  
         C11       1.0000    0.98320   0.77850   0.34710   Biso      1.000     C          -0.5645100000000001           
         C12       1.0000    0.24540   0.29580   0.17620   Biso      1.000     C          0.316884  
         C13       1.0000    0.75460   0.70420   0.17620   Biso      1.000     C          0.31689   
         C14       1.0000    0.98320   0.22150   0.65290   Biso      1.000     C          -0.5645220000000001           
         C15       1.0000    0.67680   0.77220   0.26930   Biso      1.000     C          -0.337061           
         C16       1.0000    0.49410   0.78920   0.27380   Biso      1.000     C          0.48469399999999996           
         C17       1.0000    0.21100   0.19200   0.35550   Biso      1.000     C          0.487975  
         C18       1.0000    0.61410   0.73160   0.81910   Biso      1.000     C          -0.5737680000000001           
         C19       1.0000    0.21100   0.80800   0.64450   Biso      1.000     C          0.48798500000000006           
         C20       1.0000    0.49410   0.21080   0.72620   Biso      1.000     C          0.48468500000000003           
         C21       1.0000    0.67680   0.22780   0.73070   Biso      1.000     C          -0.337054           
         C22       1.0000    0.75460   0.29580   0.82380   Biso      1.000     C          0.316892  
         C23       1.0000    0.61410   0.26840   0.18090   Biso      1.000     C          -0.573756           
         C24       1.0000    0.01680   0.77850   0.65290   Biso      1.000     C          -0.564529           
         H1        1.0000    0.30850   0.64940   0.20620   Biso      1.000     H          0.183417  
         H2        1.0000    0.95830   0.81980   0.58870   Biso      1.000     H          0.190426  
         H3        1.0000    0.31610   0.81650   0.15170   Biso      1.000     H          0.185279  
         H4        1.0000    0.97100   0.17060   0.28220   Biso      1.000     H          0.17815799999999998           
         H5        1.0000    0.99560   0.33260   0.34220   Biso      1.000     H          0.178058  
         H6        1.0000    0.68390   0.18350   0.15170   Biso      1.000     H          0.18526199999999998           
         H7        1.0000    0.46250   0.69140   0.12410   Biso      1.000     H          0.167613  
         H8        1.0000    0.95830   0.18020   0.41130   Biso      1.000     H          0.190423  
         H9        1.0000    0.53750   0.30860   0.12410   Biso      1.000     H          0.1676    
         H10       1.0000    0.00440   0.66740   0.34220   Biso      1.000     H          0.178067  
         H11       1.0000    0.68390   0.81650   0.84830   Biso      1.000     H          0.18525899999999998           
         H12       1.0000    0.04170   0.18020   0.58870   Biso      1.000     H          0.190429  
         H13       1.0000    0.02900   0.17060   0.71780   Biso      1.000     H          0.17816500000000002           
         H14       1.0000    0.00440   0.33260   0.65780   Biso      1.000     H          0.178064  
         H15       1.0000    0.04170   0.81980   0.41130   Biso      1.000     H          0.190426  
         H16       1.0000    0.53750   0.69140   0.87590   Biso      1.000     H          0.167603  
         H17       1.0000    0.69150   0.64940   0.79380   Biso      1.000     H          0.183408  
         H18       1.0000    0.30850   0.35060   0.79380   Biso      1.000     H          0.18341300000000002           
         H19       1.0000    0.46250   0.30860   0.87590   Biso      1.000     H          0.167606  
         H20       1.0000    0.31610   0.18350   0.84830   Biso      1.000     H          0.185265  
         H21       1.0000    0.69150   0.35060   0.20620   Biso      1.000     H          0.18340499999999998           
         H22       1.0000    0.97100   0.82940   0.71780   Biso      1.000     H          0.17815899999999998           
         H23       1.0000    0.99560   0.66740   0.65780   Biso      1.000     H          0.178057  
         H24       1.0000    0.02900   0.82940   0.28220   Biso      1.000     H          0.17816500000000002           
         N1        1.0000    0.82200   0.64890   0.10260   Biso      1.000     N          -0.43561000000000005          
         N2        1.0000    0.17800   0.64890   0.89740   Biso      1.000     N          -0.435623           
         N3        1.0000    0.82200   0.35110   0.89740   Biso      1.000     N          -0.435616           
         N4        1.0000    0.17800   0.35110   0.10260   Biso      1.000     N          -0.435621           
         O1        1.0000    0.41560   0.14920   0.64750   Biso      1.000     O          -0.45723500000000006          
         O2        1.0000    0.58440   0.14920   0.35250   Biso      1.000     O          -0.457207           
         O3        1.0000    0.41560   0.85080   0.35250   Biso      1.000     O          -0.45723100000000005          
         O4        1.0000    0.73620   0.86540   0.44250   Biso      1.000     O          -0.431291           
         O5        1.0000    0.73620   0.13460   0.55750   Biso      1.000     O          -0.43133  
         O6        1.0000    0.58440   0.85080   0.64750   Biso      1.000     O          -0.45722299999999994          
         O7        1.0000    0.26380   0.86540   0.55750   Biso      1.000     O          -0.431317           
         O8        1.0000    0.26380   0.13460   0.44250   Biso      1.000     O          -0.43126800000000004          
         Yb1       1.0000    0.50000   0.00000   0.50000   Biso      1.000     Yb          1.1940520000000001 