
##########################################################################
#               Crystallographic Information Format file
#               Produced by PyCifRW module
#
#  This is a CIF file.  CIF has been adopted by the International
#  Union of Crystallography as the standard for data archiving and
#  transmission.
#
#  For information on this file format, follow the CIF links at
#  http://www.iucr.org
##########################################################################

data_image0

_cell_length_a                          14.5345
_cell_length_b                          14.5345
_cell_length_c                          21.9356
_cell_angle_alpha                       82.2636
_cell_angle_beta                        82.2636
_cell_angle_gamma                       66.6477
_symmetry_space_group_name_H-M          'P 1'
_symmetry_int_tables_number             1
loop_
  _symmetry_equiv_pos_as_xyz
         'x, y, z' 
loop_
  _atom_site_label
  _atom_site_occupancy
  _atom_site_fract_x
  _atom_site_fract_y
  _atom_site_fract_z
  _atom_site_thermal_displace_type
  _atom_site_B_iso_or_equiv
  _atom_site_type_symbol
  _atom_site_charge
         C1        1.0000    0.54880   0.19060   0.88512   Biso      1.000     C          -0.056332           
         C2        1.0000    0.80940   0.45120   0.61488   Biso      1.000     C          -0.056332           
         C3        1.0000    0.83011   0.46191   0.55118   Biso      1.000     C          -0.169134           
         C4        1.0000    0.80515   0.55875   0.52406   Biso      1.000     C          -0.06938  
         C5        1.0000    0.75958   0.64158   0.55823   Biso      1.000     C          -0.072552           
         C6        1.0000    0.73879   0.62859   0.62103   Biso      1.000     C          -0.08922  
         C7        1.0000    0.69323   0.71763   0.65864   Biso      1.000     C          0.649604  
         C8        1.0000    0.74608   0.34728   0.96238   Biso      1.000     C          -0.11179  
         C9        1.0000    0.84498   0.30418   0.93726   Biso      1.000     C          -0.004685           
         C10       1.0000    0.90756   0.36596   0.91971   Biso      1.000     C          0.56965   
         C11       1.0000    0.88643   0.20283   0.92943   Biso      1.000     C          -0.10132  
         C12       1.0000    0.82909   0.14469   0.94730   Biso      1.000     C          -0.084162           
         C13       1.0000    0.76570   0.53250   0.64877   Biso      1.000     C          -0.124553           
         C14       1.0000    0.90865   0.67125   0.94087   Biso      1.000     C          0.612465  
         C15       1.0000    0.55712   0.08572   0.20673   Biso      1.000     C          -0.000212           
         C16       1.0000    0.53940   0.02880   0.16685   Biso      1.000     C          -0.110467           
         C17       1.0000    0.56764   0.03724   0.10440   Biso      1.000     C          -0.094545           
         C18       1.0000    0.61132   0.10552   0.07900   Biso      1.000     C          -0.202315           
         C19       1.0000    0.62757   0.16277   0.11932   Biso      1.000     C          -0.085141           
         C20       1.0000    0.60056   0.15276   0.18238   Biso      1.000     C          -0.100947           
         C21       1.0000    0.72636   0.97776   0.97571   Biso      1.000     C          -0.19726  
         C22       1.0000    0.71102   0.93462   0.92684   Biso      1.000     C          -0.091391           
         C23       1.0000    0.77033   0.83633   0.91528   Biso      1.000     C          -0.095722           
         C24       1.0000    0.84541   0.77761   0.95336   Biso      1.000     C          -0.020061           
         C25       1.0000    0.86126   0.81966   0.00227   Biso      1.000     C          -0.104303           
         C26       1.0000    0.52921   0.07261   0.27444   Biso      1.000     C          0.586756  
         C27       1.0000    0.80311   0.91791   0.01234   Biso      1.000     C          -0.073274           
         C28       1.0000    0.81391   0.26931   0.52754   Biso      1.000     C          -0.203723           
         C29       1.0000    0.65272   0.25392   0.53762   Biso      1.000     C          -0.11179  
         C30       1.0000    0.68985   0.28945   0.97908   Biso      1.000     C          -0.092164           
         C31       1.0000    0.53809   0.16989   0.94882   Biso      1.000     C          -0.169136           
         C32       1.0000    0.44125   0.19485   0.97594   Biso      1.000     C          -0.06938  
         C33       1.0000    0.35842   0.24042   0.94177   Biso      1.000     C          -0.072552           
         C34       1.0000    0.37141   0.26121   0.87897   Biso      1.000     C          -0.08922  
         C35       1.0000    0.28237   0.30677   0.84136   Biso      1.000     C          0.649603  
         C36       1.0000    0.08209   0.19689   0.48766   Biso      1.000     C          -0.07328  
         C37       1.0000    0.18034   0.13874   0.49773   Biso      1.000     C          -0.104298           
         C38       1.0000    0.22239   0.15459   0.54664   Biso      1.000     C          -0.020062           
         C39       1.0000    0.16367   0.22967   0.58472   Biso      1.000     C          -0.095724           
         C40       1.0000    0.06538   0.28898   0.57316   Biso      1.000     C          -0.09139  
         C41       1.0000    0.71055   0.31015   0.52092   Biso      1.000     C          -0.092165           
         C42       1.0000    0.02224   0.27364   0.52429   Biso      1.000     C          -0.197258           
         C43       1.0000    0.83723   0.37243   0.38068   Biso      1.000     C          -0.085147           
         C44       1.0000    0.89448   0.38868   0.42100   Biso      1.000     C          -0.20231  
         C45       1.0000    0.96276   0.43236   0.39560   Biso      1.000     C          -0.094544           
         C46       1.0000    0.97120   0.46060   0.33315   Biso      1.000     C          -0.110468           
         C47       1.0000    0.91428   0.44288   0.29327   Biso      1.000     C          -0.000212           
         C48       1.0000    0.92739   0.47079   0.22556   Biso      1.000     C          0.586756  
         C49       1.0000    0.32875   0.09135   0.55913   Biso      1.000     C          0.612465  
         C50       1.0000    0.85531   0.17091   0.55270   Biso      1.000     C          -0.084161           
         C51       1.0000    0.79717   0.11357   0.57057   Biso      1.000     C          -0.101322           
         C52       1.0000    0.63404   0.09244   0.58029   Biso      1.000     C          0.56965   
         C53       1.0000    0.69582   0.15502   0.56274   Biso      1.000     C          -0.004683           
         C54       1.0000    0.84724   0.39944   0.31762   Biso      1.000     C          -0.100945           
         C55       1.0000    0.30677   0.28237   0.34136   Biso      1.000     C          0.649604  
         C56       1.0000    0.26121   0.37141   0.37897   Biso      1.000     C          -0.089227           
         C57       1.0000    0.24042   0.35842   0.44177   Biso      1.000     C          -0.072544           
         C58       1.0000    0.46191   0.83011   0.05118   Biso      1.000     C          -0.169137           
         C59       1.0000    0.45120   0.80940   0.11488   Biso      1.000     C          -0.05633  
         C60       1.0000    0.53250   0.76570   0.14877   Biso      1.000     C          -0.124556           
         C61       1.0000    0.26931   0.81391   0.02754   Biso      1.000     C          -0.203724           
         C62       1.0000    0.31015   0.71055   0.02092   Biso      1.000     C          -0.092173           
         C63       1.0000    0.25392   0.65272   0.03762   Biso      1.000     C          -0.111781           
         C64       1.0000    0.15502   0.69582   0.06274   Biso      1.000     C          -0.004686           
         C65       1.0000    0.09244   0.63404   0.08029   Biso      1.000     C          0.56965   
         C66       1.0000    0.11357   0.79717   0.07057   Biso      1.000     C          -0.10132  
         C67       1.0000    0.17091   0.85531   0.05270   Biso      1.000     C          -0.084162           
         C68       1.0000    0.09135   0.32875   0.05913   Biso      1.000     C          0.612465  
         C69       1.0000    0.55875   0.80515   0.02406   Biso      1.000     C          -0.069379           
         C70       1.0000    0.47079   0.92739   0.72556   Biso      1.000     C          0.586756  
         C71       1.0000    0.46060   0.97120   0.83315   Biso      1.000     C          -0.110468           
         C72       1.0000    0.43236   0.96276   0.89560   Biso      1.000     C          -0.094545           
         C73       1.0000    0.38868   0.89448   0.92100   Biso      1.000     C          -0.202315           
         C74       1.0000    0.37243   0.83723   0.88068   Biso      1.000     C          -0.085141           
         C75       1.0000    0.39944   0.84724   0.81762   Biso      1.000     C          -0.100952           
         C76       1.0000    0.27364   0.02224   0.02429   Biso      1.000     C          -0.197261           
         C77       1.0000    0.28898   0.06538   0.07316   Biso      1.000     C          -0.091391           
         C78       1.0000    0.22967   0.16367   0.08472   Biso      1.000     C          -0.095722           
         C79       1.0000    0.15459   0.22239   0.04664   Biso      1.000     C          -0.020061           
         C80       1.0000    0.13874   0.18034   0.99773   Biso      1.000     C          -0.104304           
         C81       1.0000    0.19689   0.08209   0.98766   Biso      1.000     C          -0.073274           
         C82       1.0000    0.44288   0.91428   0.79327   Biso      1.000     C          -0.000208           
         C83       1.0000    0.64158   0.75958   0.05823   Biso      1.000     C          -0.072552           
         C84       1.0000    0.62859   0.73879   0.12103   Biso      1.000     C          -0.089216           
         C85       1.0000    0.71763   0.69323   0.15864   Biso      1.000     C          0.649603  
         C86       1.0000    0.19485   0.44125   0.47594   Biso      1.000     C          -0.069384           
         C87       1.0000    0.16989   0.53809   0.44882   Biso      1.000     C          -0.169132           
         C88       1.0000    0.19060   0.54880   0.38512   Biso      1.000     C          -0.056331           
         C89       1.0000    0.23430   0.46750   0.35123   Biso      1.000     C          -0.124552           
         C90       1.0000    0.18609   0.73069   0.47246   Biso      1.000     C          -0.203722           
         C91       1.0000    0.28945   0.68985   0.47908   Biso      1.000     C          -0.092173           
         C92       1.0000    0.34728   0.74608   0.46238   Biso      1.000     C          -0.111781           
         C93       1.0000    0.30418   0.84498   0.43726   Biso      1.000     C          -0.004686           
         C94       1.0000    0.36596   0.90756   0.41971   Biso      1.000     C          0.56965   
         C95       1.0000    0.20283   0.88643   0.42943   Biso      1.000     C          -0.10132  
         C96       1.0000    0.14469   0.82909   0.44730   Biso      1.000     C          -0.084162           
         C97       1.0000    0.67125   0.90865   0.44087   Biso      1.000     C          0.612465  
         C98       1.0000    0.07261   0.52921   0.77444   Biso      1.000     C          0.586756  
         C99       1.0000    0.08572   0.55712   0.70673   Biso      1.000     C          -0.000212           
         C100      1.0000    0.02880   0.53940   0.66685   Biso      1.000     C          -0.110467           
         C101      1.0000    0.03724   0.56764   0.60440   Biso      1.000     C          -0.094544           
         C102      1.0000    0.10552   0.61132   0.57900   Biso      1.000     C          -0.20231  
         C103      1.0000    0.16277   0.62757   0.61932   Biso      1.000     C          -0.085147           
         C104      1.0000    0.15276   0.60056   0.68238   Biso      1.000     C          -0.100945           
         C105      1.0000    0.97776   0.72636   0.47571   Biso      1.000     C          -0.197258           
         C106      1.0000    0.93462   0.71102   0.42684   Biso      1.000     C          -0.091391           
         C107      1.0000    0.83633   0.77033   0.41528   Biso      1.000     C          -0.095722           
         C108      1.0000    0.77761   0.84541   0.45336   Biso      1.000     C          -0.020061           
         C109      1.0000    0.81966   0.86126   0.50227   Biso      1.000     C          -0.104303           
         C110      1.0000    0.91791   0.80311   0.51234   Biso      1.000     C          -0.073275           
         C111      1.0000    0.46750   0.23430   0.85123   Biso      1.000     C          -0.124552           
         C112      1.0000    0.73069   0.18609   0.97246   Biso      1.000     C          -0.203725           
         Ce1       1.0000    0.53207   0.95185   0.59573   Biso      1.000     Ce          2.009791  
         Ce2       1.0000    0.04815   0.46793   0.90427   Biso      1.000     Ce          2.00979   
         Ce3       1.0000    0.46793   0.04815   0.40427   Biso      1.000     Ce          2.009791  
         Ce4       1.0000    0.95185   0.53207   0.09573   Biso      1.000     Ce          2.00979   
         H1        1.0000    0.64480   0.70460   0.22550   Biso      1.000     H          0.430468  
         H2        1.0000    0.43110   0.18070   0.01830   Biso      1.000     H          0.103619  
         H3        1.0000    0.61310   0.17430   0.86500   Biso      1.000     H          0.110361  
         H4        1.0000    0.47760   0.24600   0.80860   Biso      1.000     H          0.104003  
         H5        1.0000    0.62330   0.31970   0.99510   Biso      1.000     H          0.100875  
         H6        1.0000    0.71780   0.41560   0.96790   Biso      1.000     H          0.117391  
         H7        1.0000    0.95250   0.17330   0.91230   Biso      1.000     H          0.123044  
         H8        1.0000    0.50820   0.98460   0.18250   Biso      1.000     H          0.11042   
         H9        1.0000    0.29380   0.25700   0.96150   Biso      1.000     H          0.104894  
         H10       1.0000    0.55740   0.99680   0.07870   Biso      1.000     H          0.096445  
         H11       1.0000    0.65700   0.20840   0.10380   Biso      1.000     H          0.101445  
         H12       1.0000    0.61190   0.19190   0.20840   Biso      1.000     H          0.119559  
         H13       1.0000    0.66000   0.97260   0.90160   Biso      1.000     H          0.099925  
         H14       1.0000    0.85780   0.07620   0.94220   Biso      1.000     H          0.102262  
         H15       1.0000    0.70460   0.64480   0.72550   Biso      1.000     H          0.430481  
         H16       1.0000    0.19060   0.24000   0.61810   Biso      1.000     H          0.124593  
         H17       1.0000    0.76000   0.80940   0.88190   Biso      1.000     H          0.124593  
         H18       1.0000    0.02740   0.34000   0.59840   Biso      1.000     H          0.099925  
         H19       1.0000    0.80810   0.38810   0.29160   Biso      1.000     H          0.119559  
         H20       1.0000    0.79160   0.34300   0.39620   Biso      1.000     H          0.101448  
         H21       1.0000    0.00320   0.44260   0.42130   Biso      1.000     H          0.096445  
         H22       1.0000    0.01540   0.49180   0.31750   Biso      1.000     H          0.11042   
         H23       1.0000    0.92380   0.14220   0.55780   Biso      1.000     H          0.102262  
         H24       1.0000    0.82670   0.04750   0.58770   Biso      1.000     H          0.123044  
         H25       1.0000    0.58440   0.28220   0.53210   Biso      1.000     H          0.117391  
         H26       1.0000    0.68030   0.37670   0.50490   Biso      1.000     H          0.100875  
         H27       1.0000    0.75400   0.52240   0.69140   Biso      1.000     H          0.104002  
         H28       1.0000    0.82570   0.38690   0.63500   Biso      1.000     H          0.11036   
         H29       1.0000    0.81930   0.56890   0.48170   Biso      1.000     H          0.103619  
         H30       1.0000    0.74300   0.70620   0.53850   Biso      1.000     H          0.104894  
         H31       1.0000    0.05470   0.18450   0.45530   Biso      1.000     H          0.108893  
         H32       1.0000    0.91120   0.78120   0.02810   Biso      1.000     H          0.115512  
         H33       1.0000    0.21880   0.08880   0.47190   Biso      1.000     H          0.115511  
         H34       1.0000    0.35520   0.29540   0.77450   Biso      1.000     H          0.430468  
         H35       1.0000    0.56890   0.81930   0.98170   Biso      1.000     H          0.103619  
         H36       1.0000    0.38690   0.82570   0.13500   Biso      1.000     H          0.11036   
         H37       1.0000    0.52240   0.75400   0.19140   Biso      1.000     H          0.104003  
         H38       1.0000    0.37670   0.68030   0.00490   Biso      1.000     H          0.100876  
         H39       1.0000    0.28220   0.58440   0.03210   Biso      1.000     H          0.117391  
         H40       1.0000    0.14220   0.92380   0.05780   Biso      1.000     H          0.102262  
         H41       1.0000    0.49180   0.01540   0.81750   Biso      1.000     H          0.11042   
         H42       1.0000    0.44260   0.00320   0.92130   Biso      1.000     H          0.096445  
         H43       1.0000    0.34300   0.79160   0.89620   Biso      1.000     H          0.101445  
         H44       1.0000    0.38810   0.80810   0.79160   Biso      1.000     H          0.11956   
         H45       1.0000    0.34000   0.02740   0.09840   Biso      1.000     H          0.099925  
         H46       1.0000    0.81550   0.94530   0.04470   Biso      1.000     H          0.108892  
         H47       1.0000    0.24000   0.19060   0.11810   Biso      1.000     H          0.124593  
         H48       1.0000    0.08880   0.21880   0.97190   Biso      1.000     H          0.115512  
         H49       1.0000    0.18450   0.05470   0.95530   Biso      1.000     H          0.108892  
         H50       1.0000    0.70620   0.74300   0.03850   Biso      1.000     H          0.104894  
         H51       1.0000    0.29540   0.35520   0.27450   Biso      1.000     H          0.430481  
         H52       1.0000    0.04750   0.82670   0.08770   Biso      1.000     H          0.123044  
         H53       1.0000    0.94530   0.81550   0.54470   Biso      1.000     H          0.108892  
         H54       1.0000    0.25700   0.29380   0.46150   Biso      1.000     H          0.104893  
         H55       1.0000    0.18070   0.43110   0.51830   Biso      1.000     H          0.103619  
         H56       1.0000    0.17430   0.61310   0.36500   Biso      1.000     H          0.11036   
         H57       1.0000    0.31970   0.62330   0.49510   Biso      1.000     H          0.100876  
         H58       1.0000    0.41560   0.71780   0.46790   Biso      1.000     H          0.117391  
         H59       1.0000    0.17330   0.95250   0.41230   Biso      1.000     H          0.123044  
         H60       1.0000    0.07620   0.85780   0.44220   Biso      1.000     H          0.102262  
         H61       1.0000    0.24600   0.47760   0.30860   Biso      1.000     H          0.104002  
         H62       1.0000    0.99680   0.55740   0.57870   Biso      1.000     H          0.096445  
         H63       1.0000    0.20840   0.65700   0.60380   Biso      1.000     H          0.101449  
         H64       1.0000    0.19190   0.61190   0.70840   Biso      1.000     H          0.119559  
         H65       1.0000    0.97260   0.66000   0.40160   Biso      1.000     H          0.099925  
         H66       1.0000    0.80940   0.76000   0.38190   Biso      1.000     H          0.124593  
         H67       1.0000    0.78120   0.91120   0.52810   Biso      1.000     H          0.115512  
         H68       1.0000    0.98460   0.50820   0.68250   Biso      1.000     H          0.11042   
         O1        1.0000    0.95143   0.60735   0.98507   Biso      1.000     O          -0.757061           
         O2        1.0000    0.31670   0.29490   0.28542   Biso      1.000     O          -0.416064           
         O3        1.0000    0.32974   0.19566   0.37038   Biso      1.000     O          -0.606494           
         O4        1.0000    0.32623   0.99371   0.39200   Biso      1.000     O          -0.60387  
         O5        1.0000    0.45583   0.87443   0.43420   Biso      1.000     O          -0.641965           
         O6        1.0000    0.64646   0.92074   0.38723   Biso      1.000     O          -0.576443           
         O7        1.0000    0.12009   0.55097   0.81085   Biso      1.000     O          -0.66943  
         O8        1.0000    0.80434   0.67026   0.12962   Biso      1.000     O          -0.606492           
         O9        1.0000    0.60735   0.95143   0.48507   Biso      1.000     O          -0.757061           
         O10       1.0000    0.70510   0.68330   0.21458   Biso      1.000     O          -0.416053           
         O11       1.0000    0.44903   0.87991   0.68915   Biso      1.000     O          -0.66943  
         O12       1.0000    0.00629   0.67377   0.10800   Biso      1.000     O          -0.60387  
         O13       1.0000    0.12557   0.54417   0.06580   Biso      1.000     O          -0.641965           
         O14       1.0000    0.07926   0.35354   0.11277   Biso      1.000     O          -0.576443           
         O15       1.0000    0.48502   0.01380   0.29458   Biso      1.000     O          -0.621121           
         O16       1.0000    0.01380   0.48502   0.79458   Biso      1.000     O          -0.621121           
         O17       1.0000    0.55097   0.12009   0.31085   Biso      1.000     O          -0.66943  
         O18       1.0000    0.04857   0.39265   0.01493   Biso      1.000     O          -0.757061           
         O19       1.0000    0.87443   0.45583   0.93420   Biso      1.000     O          -0.641965           
         O20       1.0000    0.51498   0.98620   0.70542   Biso      1.000     O          -0.621121           
         O21       1.0000    0.68330   0.70510   0.71458   Biso      1.000     O          -0.416064           
         O22       1.0000    0.67026   0.80434   0.62962   Biso      1.000     O          -0.606494           
         O23       1.0000    0.67377   0.00629   0.60800   Biso      1.000     O          -0.60387  
         O24       1.0000    0.92074   0.64646   0.88723   Biso      1.000     O          -0.576443           
         O25       1.0000    0.35354   0.07926   0.61277   Biso      1.000     O          -0.576443           
         O26       1.0000    0.54417   0.12557   0.56580   Biso      1.000     O          -0.641965           
         O27       1.0000    0.98620   0.51498   0.20542   Biso      1.000     O          -0.621121           
         O28       1.0000    0.39265   0.04857   0.51493   Biso      1.000     O          -0.757061           
         O29       1.0000    0.29490   0.31670   0.78542   Biso      1.000     O          -0.416053           
         O30       1.0000    0.19566   0.32974   0.87038   Biso      1.000     O          -0.606492           
         O31       1.0000    0.99371   0.32623   0.89200   Biso      1.000     O          -0.60387  
         O32       1.0000    0.87991   0.44903   0.18915   Biso      1.000     O          -0.66943  
         Si1       1.0000    0.65068   0.11070   0.99391   Biso      1.000     Si          0.645122  
         Si2       1.0000    0.11070   0.65068   0.49391   Biso      1.000     Si          0.645111  
         Si3       1.0000    0.34932   0.88930   0.00609   Biso      1.000     Si          0.645122  
         Si4       1.0000    0.88930   0.34932   0.50609   Biso      1.000     Si          0.645112 