
##########################################################################
#               Crystallographic Information Format file
#               Produced by PyCifRW module
#
#  This is a CIF file.  CIF has been adopted by the International
#  Union of Crystallography as the standard for data archiving and
#  transmission.
#
#  For information on this file format, follow the CIF links at
#  http://www.iucr.org
##########################################################################

data_image0

_cell_length_a                          14.0571
_cell_length_b                          14.0571
_cell_length_c                          14.0571
_cell_angle_alpha                       108.353
_cell_angle_beta                        110.033
_cell_angle_gamma                       110.033
_symmetry_space_group_name_H-M          'P 1'
_symmetry_int_tables_number             1
loop_
  _symmetry_equiv_pos_as_xyz
         'x, y, z' 
loop_
  _atom_site_label
  _atom_site_occupancy
  _atom_site_fract_x
  _atom_site_fract_y
  _atom_site_fract_z
  _atom_site_thermal_displace_type
  _atom_site_B_iso_or_equiv
  _atom_site_type_symbol
  _atom_site_charge
         C1        1.0000    0.48680   0.26970   0.10230   Biso      1.000     C          -0.532459           
         C2        1.0000    0.22490   0.77290   0.85940   Biso      1.000     C          0.299561  
         C3        1.0000    0.33260   0.85230   0.86550   Biso      1.000     C          -0.533121           
         C4        1.0000    0.41350   0.29800   0.02290   Biso      1.000     C          0.297672  
         C5        1.0000    0.58650   0.60940   0.88450   Biso      1.000     C          0.297295  
         C6        1.0000    0.51320   0.61550   0.78290   Biso      1.000     C          -0.5320729999999999           
         C7        1.0000    0.91350   0.77290   0.54800   Biso      1.000     C          0.299923  
         C8        1.0000    0.98680   0.85230   0.51970   Biso      1.000     C          -0.533493           
         C9        1.0000    0.08650   0.63450   0.85940   Biso      1.000     C          0.299579  
         C10       1.0000    0.01320   0.53290   0.86550   Biso      1.000     C          -0.5331020000000001           
         C11       1.0000    0.72490   0.60940   0.02290   Biso      1.000     C          0.29728499999999997           
         C12       1.0000    0.83260   0.61550   0.10230   Biso      1.000     C          -0.532094           
         C13       1.0000    0.27510   0.29800   0.88450   Biso      1.000     C          0.297131  
         C14       1.0000    0.16740   0.26970   0.78290   Biso      1.000     C          -0.537905           
         C15       1.0000    0.79920   0.67700   0.47620   Biso      1.000     C          -0.306578           
         C16       1.0000    0.72480   0.62940   0.35420   Biso      1.000     C          0.588622  
         C17       1.0000    0.20080   0.67700   0.87780   Biso      1.000     C          -0.306556           
         C18       1.0000    0.27520   0.62940   0.90460   Biso      1.000     C          0.5886170000000001  
         C19       1.0000    0.29920   0.22620   0.92700   Biso      1.000     C          -0.304325           
         C20       1.0000    0.22480   0.10420   0.87940   Biso      1.000     C          0.589663  
         C21       1.0000    0.70080   0.62780   0.92700   Biso      1.000     C          -0.30429  
         C22       1.0000    0.77520   0.65460   0.87940   Biso      1.000     C          0.589665  
         C23       1.0000    0.66740   0.53290   0.51970   Biso      1.000     C          -0.539097           
         C24       1.0000    0.77510   0.63450   0.54800   Biso      1.000     C          0.299404  
         Cu1       1.0000    0.89857   0.69884   0.80027   Biso      1.000     Cu          0.622379  
         Cu2       1.0000    0.10143   0.90170   0.80027   Biso      1.000     Cu          0.622337  
         Cu3       1.0000    0.60143   0.55027   0.15170   Biso      1.000     Cu          0.662137  
         Cu4       1.0000    0.39857   0.55027   0.94884   Biso      1.000     Cu          0.662166  
         H1        1.0000    0.15710   0.33670   0.79940   Biso      1.000     H          0.181054  
         H2        1.0000    0.65710   0.54940   0.58670   Biso      1.000     H          0.183043  
         H3        1.0000    0.67570   0.46470   0.49920   Biso      1.000     H          0.17416199999999998           
         H4        1.0000    0.90050   0.66920   0.10530   Biso      1.000     H          0.18220999999999998           
         H5        1.0000    0.34290   0.92960   0.89230   Biso      1.000     H          0.17679   
         H6        1.0000    0.32430   0.82350   0.78900   Biso      1.000     H          0.17416700000000002           
         H7        1.0000    0.40050   0.85530   0.91920   Biso      1.000     H          0.18187899999999999           
         H8        1.0000    0.53730   0.33670   0.17960   Biso      1.000     H          0.17504   
         H9        1.0000    0.53450   0.24920   0.07350   Biso      1.000     H          0.173934  
         H10       1.0000    0.43610   0.20480   0.10530   Biso      1.000     H          0.182267  
         H11       1.0000    0.46270   0.64230   0.79940   Biso      1.000     H          0.174997  
         H12       1.0000    0.59950   0.51870   0.45480   Biso      1.000     H          0.181871  
         H13       1.0000    0.56390   0.66920   0.76870   Biso      1.000     H          0.18225   
         H14       1.0000    0.03730   0.92960   0.58670   Biso      1.000     H          0.176849  
         H15       1.0000    0.03450   0.82350   0.49920   Biso      1.000     H          0.174224  
         H16       1.0000    0.93610   0.85530   0.45480   Biso      1.000     H          0.18193900000000002           
         H17       1.0000    0.96270   0.54940   0.89230   Biso      1.000     H          0.17680099999999999           
         H18       1.0000    0.96550   0.46470   0.78900   Biso      1.000     H          0.174175  
         H19       1.0000    0.06390   0.51870   0.91920   Biso      1.000     H          0.181917  
         H20       1.0000    0.84290   0.64230   0.17960   Biso      1.000     H          0.17498699999999998           
         H21       1.0000    0.82430   0.53900   0.07350   Biso      1.000     H          0.17388   
         H22       1.0000    0.09950   0.20480   0.76870   Biso      1.000     H          0.182204  
         H23       1.0000    0.17570   0.24920   0.71470   Biso      1.000     H          0.173877  
         H24       1.0000    0.46550   0.53900   0.71470   Biso      1.000     H          0.17388900000000002           
         N1        1.0000    0.36820   0.40420   0.95220   Biso      1.000     N          -0.261436           
         N2        1.0000    0.63180   0.58400   0.03600   Biso      1.000     N          -0.261464           
         N3        1.0000    0.04800   0.70220   0.83400   Biso      1.000     N          -0.248592           
         N4        1.0000    0.95200   0.78600   0.65420   Biso      1.000     N          -0.24864699999999998          
         N5        1.0000    0.13180   0.78600   0.83400   Biso      1.000     N          -0.24854899999999996          
         N6        1.0000    0.45200   0.40420   0.03600   Biso      1.000     N          -0.26151599999999997          
         N7        1.0000    0.86820   0.70220   0.65420   Biso      1.000     N          -0.248525           
         N8        1.0000    0.54800   0.58400   0.95220   Biso      1.000     N          -0.261439           
         O1        1.0000    0.87700   0.66670   0.92350   Biso      1.000     O          -0.507998           
         O2        1.0000    0.62300   0.53970   0.29650   Biso      1.000     O          -0.503343           
         O3        1.0000    0.37700   0.67350   0.91670   Biso      1.000     O          -0.503293           
         O4        1.0000    0.25680   0.04650   0.92350   Biso      1.000     O          -0.50805  
         O5        1.0000    0.74320   0.66670   0.78970   Biso      1.000     O          -0.50862  
         O6        1.0000    0.75680   0.67350   0.29650   Biso      1.000     O          -0.503347           
         O7        1.0000    0.24320   0.53970   0.91670   Biso      1.000     O          -0.503883           
         O8        1.0000    0.12300   0.04650   0.78970   Biso      1.000     O          -0.508047 