
##########################################################################
#               Crystallographic Information Format file
#               Produced by PyCifRW module
#
#  This is a CIF file.  CIF has been adopted by the International
#  Union of Crystallography as the standard for data archiving and
#  transmission.
#
#  For information on this file format, follow the CIF links at
#  http://www.iucr.org
##########################################################################

data_image0

_cell_length_a                          9.8633
_cell_length_b                          16.4409
_cell_length_c                          18.2187
_cell_angle_alpha                       90
_cell_angle_beta                        94.197
_cell_angle_gamma                       90
_symmetry_space_group_name_H-M          'P 1'
_symmetry_int_tables_number             1
loop_
  _symmetry_equiv_pos_as_xyz
         'x, y, z' 
loop_
  _atom_site_label
  _atom_site_occupancy
  _atom_site_fract_x
  _atom_site_fract_y
  _atom_site_fract_z
  _atom_site_thermal_displace_type
  _atom_site_B_iso_or_equiv
  _atom_site_type_symbol
  _atom_site_charge
         C1        1.0000    0.78730   0.56920   0.02310   Biso      1.000     C          0.568168  
         C2        1.0000    0.24900   0.25200   0.84770   Biso      1.000     C          -0.252746           
         C3        1.0000    0.37840   0.22510   0.87960   Biso      1.000     C          0.265019  
         C4        1.0000    0.43940   0.25690   0.93760   Biso      1.000     C          -0.217366           
         C5        1.0000    0.38000   0.31840   0.96910   Biso      1.000     C          -0.074233           
         C6        1.0000    0.38860   0.13040   0.78640   Biso      1.000     C          -0.074131           
         C7        1.0000    0.57560   0.01640   0.80840   Biso      1.000     C          -0.077186           
         C8        1.0000    0.19100   0.32150   0.88190   Biso      1.000     C          -0.065868           
         C9        1.0000    0.72520   0.90180   0.81330   Biso      1.000     C          0.300869  
         C10       1.0000    0.80480   0.82990   0.92330   Biso      1.000     C          -0.026924           
         C11       1.0000    0.86860   0.77550   0.88220   Biso      1.000     C          -0.029828           
         C12       1.0000    0.84190   0.77880   0.80780   Biso      1.000     C          -0.040523           
         C13       1.0000    0.77210   0.84210   0.77450   Biso      1.000     C          -0.21544  
         C14       1.0000    0.95040   0.70950   0.92010   Biso      1.000     C          0.58824   
         C15       1.0000    0.62410   0.41860   0.09220   Biso      1.000     C          0.077392  
         C16       1.0000    0.72510   0.89420   0.88600   Biso      1.000     C          -0.037632           
         C17       1.0000    0.71360   0.30330   0.11700   Biso      1.000     C          -0.033152           
         C18       1.0000    0.50000   0.51670   0.75000   Biso      1.000     C          0.105317  
         C19       1.0000    0.08800   0.15200   0.09900   Biso      1.000     C          -0.078426           
         C20       1.0000    0.80480   0.17010   0.42330   Biso      1.000     C          -0.026919           
         C21       1.0000    0.86860   0.22450   0.38220   Biso      1.000     C          -0.029829           
         C22       1.0000    0.84190   0.22120   0.30780   Biso      1.000     C          -0.040516           
         C23       1.0000    0.77210   0.15790   0.27450   Biso      1.000     C          -0.215485           
         C24       1.0000    0.95040   0.29050   0.42010   Biso      1.000     C          0.588239  
         C25       1.0000    0.62410   0.58140   0.59220   Biso      1.000     C          0.077392  
         C26       1.0000    0.21270   0.43080   0.97690   Biso      1.000     C          0.568165  
         C27       1.0000    0.71360   0.69670   0.61700   Biso      1.000     C          -0.033152           
         C28       1.0000    0.45100   0.56940   0.68240   Biso      1.000     C          -0.185845           
         C29       1.0000    0.37580   0.46510   0.76930   Biso      1.000     C          -0.18081  
         C30       1.0000    0.35430   0.33860   0.68610   Biso      1.000     C          -0.140909           
         C31       1.0000    0.21170   0.43650   0.66250   Biso      1.000     C          0.110316  
         C32       1.0000    0.27210   0.31970   0.62850   Biso      1.000     C          -0.023925           
         C33       1.0000    0.18100   0.07080   0.12300   Biso      1.000     C          -0.113779           
         C34       1.0000    0.61170   0.68630   0.66310   Biso      1.000     C          -0.142151           
         C35       1.0000    0.61170   0.31370   0.16310   Biso      1.000     C          -0.142152           
         C36       1.0000    0.45100   0.43060   0.18240   Biso      1.000     C          -0.185845           
         C37       1.0000    0.37580   0.53490   0.26930   Biso      1.000     C          -0.18081  
         C38       1.0000    0.22790   0.84210   0.72550   Biso      1.000     C          -0.215496           
         C39       1.0000    0.04960   0.70950   0.57990   Biso      1.000     C          0.58824   
         C40       1.0000    0.37590   0.41860   0.40780   Biso      1.000     C          0.077392  
         C41       1.0000    0.28640   0.30330   0.38300   Biso      1.000     C          -0.033152           
         C42       1.0000    0.38830   0.31370   0.33690   Biso      1.000     C          -0.142151           
         C43       1.0000    0.54900   0.43060   0.31760   Biso      1.000     C          -0.185845           
         C44       1.0000    0.15810   0.77880   0.69220   Biso      1.000     C          -0.040505           
         C45       1.0000    0.62420   0.53490   0.23070   Biso      1.000     C          -0.18081  
         C46       1.0000    0.78830   0.56350   0.33750   Biso      1.000     C          0.110315  
         C47       1.0000    0.72790   0.68030   0.37150   Biso      1.000     C          -0.02397  
         C48       1.0000    0.81900   0.92920   0.87700   Biso      1.000     C          -0.113563           
         C49       1.0000    0.91200   0.84800   0.90100   Biso      1.000     C          -0.078272           
         C50       1.0000    0.50000   0.93090   0.25000   Biso      1.000     C          0.055042  
         C51       1.0000    0.50000   0.06910   0.75000   Biso      1.000     C          0.055041  
         C52       1.0000    0.64570   0.66140   0.31390   Biso      1.000     C          -0.140863           
         C53       1.0000    0.13140   0.77550   0.61780   Biso      1.000     C          -0.029843           
         C54       1.0000    0.19520   0.82990   0.57670   Biso      1.000     C          -0.026904           
         C55       1.0000    0.27490   0.89420   0.61400   Biso      1.000     C          -0.03768  
         C56       1.0000    0.35430   0.66140   0.18610   Biso      1.000     C          -0.140908           
         C57       1.0000    0.21170   0.56350   0.16250   Biso      1.000     C          0.110316  
         C58       1.0000    0.27210   0.68030   0.12850   Biso      1.000     C          -0.023925           
         C59       1.0000    0.18100   0.92920   0.62300   Biso      1.000     C          -0.113562           
         C60       1.0000    0.08800   0.84800   0.59900   Biso      1.000     C          -0.078273           
         C61       1.0000    0.78730   0.43080   0.52310   Biso      1.000     C          0.568168  
         C62       1.0000    0.74230   0.35460   0.55870   Biso      1.000     C          -0.056392           
         C63       1.0000    0.80900   0.32150   0.61810   Biso      1.000     C          -0.065837           
         C64       1.0000    0.75100   0.25200   0.65230   Biso      1.000     C          -0.25275  
         C65       1.0000    0.62160   0.22510   0.62040   Biso      1.000     C          0.26502   
         C66       1.0000    0.56060   0.25690   0.56240   Biso      1.000     C          -0.217363           
         C67       1.0000    0.62000   0.31840   0.53090   Biso      1.000     C          -0.074227           
         C68       1.0000    0.61140   0.13040   0.71360   Biso      1.000     C          -0.074131           
         C69       1.0000    0.42440   0.01640   0.69160   Biso      1.000     C          -0.077185           
         C70       1.0000    0.27480   0.90180   0.68670   Biso      1.000     C          0.30095   
         C71       1.0000    0.72510   0.10580   0.38600   Biso      1.000     C          -0.037678           
         C72       1.0000    0.72520   0.09820   0.31330   Biso      1.000     C          0.300949  
         C73       1.0000    0.25770   0.35460   0.94130   Biso      1.000     C          -0.056362           
         C74       1.0000    0.50000   0.48330   0.25000   Biso      1.000     C          0.105317  
         C75       1.0000    0.37590   0.58140   0.90780   Biso      1.000     C          0.077392  
         C76       1.0000    0.04960   0.29050   0.07990   Biso      1.000     C          0.588238  
         C77       1.0000    0.19100   0.67850   0.38190   Biso      1.000     C          -0.065867           
         C78       1.0000    0.22790   0.15790   0.22550   Biso      1.000     C          -0.215494           
         C79       1.0000    0.25770   0.64540   0.44130   Biso      1.000     C          -0.056358           
         C80       1.0000    0.62000   0.68160   0.03090   Biso      1.000     C          -0.074259           
         C81       1.0000    0.72790   0.31970   0.87150   Biso      1.000     C          -0.02397  
         C82       1.0000    0.21270   0.56920   0.47690   Biso      1.000     C          0.568165  
         C83       1.0000    0.13140   0.22450   0.11780   Biso      1.000     C          -0.029815           
         C84       1.0000    0.19520   0.17010   0.07670   Biso      1.000     C          -0.026782           
         C85       1.0000    0.61140   0.86960   0.21360   Biso      1.000     C          -0.07413  
         C86       1.0000    0.27490   0.10580   0.11400   Biso      1.000     C          -0.037451           
         C87       1.0000    0.27480   0.09820   0.18670   Biso      1.000     C          0.300944  
         C88       1.0000    0.81900   0.07080   0.37700   Biso      1.000     C          -0.113562           
         C89       1.0000    0.15810   0.22120   0.19220   Biso      1.000     C          -0.040505           
         C90       1.0000    0.42440   0.98360   0.19160   Biso      1.000     C          -0.077188           
         C91       1.0000    0.28640   0.69670   0.88300   Biso      1.000     C          -0.033152           
         C92       1.0000    0.24900   0.74800   0.34770   Biso      1.000     C          -0.252751           
         C93       1.0000    0.57560   0.98360   0.30840   Biso      1.000     C          -0.077185           
         C94       1.0000    0.74230   0.64540   0.05870   Biso      1.000     C          -0.056389           
         C95       1.0000    0.80900   0.67850   0.11810   Biso      1.000     C          -0.065836           
         C96       1.0000    0.38860   0.86960   0.28640   Biso      1.000     C          -0.07413  
         C97       1.0000    0.62420   0.46510   0.73070   Biso      1.000     C          -0.18081  
         C98       1.0000    0.75100   0.74800   0.15230   Biso      1.000     C          -0.252755           
         C99       1.0000    0.56060   0.74310   0.06240   Biso      1.000     C          -0.217375           
         C100      1.0000    0.38000   0.68160   0.46910   Biso      1.000     C          -0.074263           
         C101      1.0000    0.43940   0.74310   0.43760   Biso      1.000     C          -0.217375           
         C102      1.0000    0.64570   0.33860   0.81390   Biso      1.000     C          -0.140863           
         C103      1.0000    0.37840   0.77490   0.37960   Biso      1.000     C          0.265061  
         C104      1.0000    0.38830   0.68630   0.83690   Biso      1.000     C          -0.142151           
         C105      1.0000    0.62160   0.77490   0.12040   Biso      1.000     C          0.265062  
         C106      1.0000    0.78830   0.43650   0.83750   Biso      1.000     C          0.110315  
         C107      1.0000    0.54900   0.56940   0.81760   Biso      1.000     C          -0.185845           
         C108      1.0000    0.91200   0.15200   0.40100   Biso      1.000     C          -0.078272           
         Cd1       1.0000    0.89957   0.40827   0.00399   Biso      1.000     Cd          0.896157  
         Cd2       1.0000    0.10043   0.59173   0.99601   Biso      1.000     Cd          0.896157  
         Cd3       1.0000    0.89957   0.59173   0.50399   Biso      1.000     Cd          0.896157  
         Cd4       1.0000    0.10043   0.40827   0.49601   Biso      1.000     Cd          0.896157  
         H1        1.0000    0.51150   0.01400   0.33560   Biso      1.000     H          0.091666  
         H2        1.0000    0.89160   0.34300   0.63700   Biso      1.000     H          0.11758   
         H3        1.0000    0.47700   0.76280   0.04320   Biso      1.000     H          0.140008  
         H4        1.0000    0.69320   0.49850   0.21430   Biso      1.000     H          0.130806  
         H5        1.0000    0.39510   0.53100   0.92930   Biso      1.000     H          0.106807  
         H6        1.0000    0.59610   0.57040   0.18990   Biso      1.000     H          0.124441  
         H7        1.0000    0.57500   0.69310   0.29280   Biso      1.000     H          0.120266  
         H8        1.0000    0.22980   0.74190   0.88340   Biso      1.000     H          0.120081  
         H9        1.0000    0.83530   0.51470   0.33470   Biso      1.000     H          0.114973  
         H10       1.0000    0.79490   0.77390   0.19280   Biso      1.000     H          0.133815  
         H11       1.0000    0.72600   0.72880   0.39750   Biso      1.000     H          0.125075  
         H12       1.0000    0.27400   0.72880   0.10250   Biso      1.000     H          0.125072  
         H13       1.0000    0.41510   0.72290   0.80190   Biso      1.000     H          0.120598  
         H14       1.0000    0.16470   0.51470   0.16530   Biso      1.000     H          0.114973  
         H15       1.0000    0.89160   0.65700   0.13700   Biso      1.000     H          0.11758   
         H16       1.0000    0.42500   0.69310   0.20720   Biso      1.000     H          0.120268  
         H17       1.0000    0.59570   0.46560   0.35410   Biso      1.000     H          0.135231  
         H18       1.0000    0.48850   0.01400   0.16440   Biso      1.000     H          0.091663  
         H19       1.0000    0.79490   0.22610   0.69280   Biso      1.000     H          0.133814  
         H20       1.0000    0.61440   0.39130   0.30230   Biso      1.000     H          0.130542  
         H21       1.0000    0.12780   0.73680   0.72100   Biso      1.000     H          0.106653  
         H22       1.0000    0.24260   0.84290   0.77650   Biso      1.000     H          0.141167  
         H23       1.0000    0.64330   0.82830   0.24880   Biso      1.000     H          0.075367  
         H24       1.0000    0.36980   0.94980   0.15720   Biso      1.000     H          0.088958  
         H25       1.0000    0.68900   0.90030   0.19890   Biso      1.000     H          0.095761  
         H26       1.0000    0.39510   0.46900   0.42930   Biso      1.000     H          0.106807  
         H27       1.0000    0.22980   0.25810   0.38340   Biso      1.000     H          0.120081  
         H28       1.0000    0.24260   0.15710   0.27650   Biso      1.000     H          0.141167  
         H29       1.0000    0.36980   0.05020   0.65720   Biso      1.000     H          0.088956  
         H30       1.0000    0.57820   0.66090   0.98750   Biso      1.000     H          0.096235  
         H31       1.0000    0.64330   0.17170   0.74880   Biso      1.000     H          0.075367  
         H32       1.0000    0.68900   0.09970   0.69890   Biso      1.000     H          0.095761  
         H33       1.0000    0.41510   0.27710   0.30190   Biso      1.000     H          0.120598  
         H34       1.0000    0.57820   0.33910   0.48750   Biso      1.000     H          0.096233  
         H35       1.0000    0.12780   0.26320   0.22100   Biso      1.000     H          0.106653  
         H36       1.0000    0.47700   0.23720   0.54320   Biso      1.000     H          0.140007  
         H37       1.0000    0.48850   0.98600   0.66440   Biso      1.000     H          0.091666  
         H38       1.0000    0.40390   0.57040   0.31010   Biso      1.000     H          0.124441  
         H39       1.0000    0.63020   0.94980   0.34280   Biso      1.000     H          0.088956  
         H40       1.0000    0.59570   0.53440   0.85410   Biso      1.000     H          0.135231  
         H41       1.0000    0.42180   0.33910   0.01250   Biso      1.000     H          0.096233  
         H42       1.0000    0.52300   0.23720   0.95680   Biso      1.000     H          0.140007  
         H43       1.0000    0.20510   0.22610   0.80720   Biso      1.000     H          0.133814  
         H44       1.0000    0.10840   0.34300   0.86300   Biso      1.000     H          0.117582  
         H45       1.0000    0.30680   0.49850   0.28570   Biso      1.000     H          0.130806  
         H46       1.0000    0.27400   0.27120   0.60250   Biso      1.000     H          0.125072  
         H47       1.0000    0.16470   0.48530   0.66530   Biso      1.000     H          0.114973  
         H48       1.0000    0.42500   0.30690   0.70720   Biso      1.000     H          0.120268  
         H49       1.0000    0.40390   0.42960   0.81010   Biso      1.000     H          0.124441  
         H50       1.0000    0.30680   0.50150   0.78570   Biso      1.000     H          0.130806  
         H51       1.0000    0.10840   0.65700   0.36300   Biso      1.000     H          0.117582  
         H52       1.0000    0.40430   0.53440   0.64590   Biso      1.000     H          0.135231  
         H53       1.0000    0.38560   0.60870   0.69770   Biso      1.000     H          0.130542  
         H54       1.0000    0.58490   0.72290   0.69810   Biso      1.000     H          0.120598  
         H55       1.0000    0.20510   0.77390   0.30720   Biso      1.000     H          0.133815  
         H56       1.0000    0.77020   0.74190   0.61660   Biso      1.000     H          0.120081  
         H57       1.0000    0.60490   0.53100   0.57070   Biso      1.000     H          0.106807  
         H58       1.0000    0.52300   0.76280   0.45680   Biso      1.000     H          0.140008  
         H59       1.0000    0.75740   0.15710   0.22350   Biso      1.000     H          0.141167  
         H60       1.0000    0.87220   0.26320   0.27900   Biso      1.000     H          0.106654  
         H61       1.0000    0.42180   0.66090   0.51250   Biso      1.000     H          0.096235  
         H62       1.0000    0.31100   0.90030   0.30110   Biso      1.000     H          0.095761  
         H63       1.0000    0.35670   0.82830   0.25120   Biso      1.000     H          0.075367  
         H64       1.0000    0.31100   0.09970   0.80110   Biso      1.000     H          0.095761  
         H65       1.0000    0.35670   0.17170   0.75120   Biso      1.000     H          0.075367  
         H66       1.0000    0.61440   0.60870   0.80230   Biso      1.000     H          0.130542  
         H67       1.0000    0.69320   0.50150   0.71430   Biso      1.000     H          0.130806  
         H68       1.0000    0.63020   0.05020   0.84280   Biso      1.000     H          0.088956  
         H69       1.0000    0.60490   0.46900   0.07070   Biso      1.000     H          0.106807  
         H70       1.0000    0.51150   0.98600   0.83560   Biso      1.000     H          0.091666  
         H71       1.0000    0.59610   0.42960   0.68990   Biso      1.000     H          0.124441  
         H72       1.0000    0.40430   0.46560   0.14590   Biso      1.000     H          0.135231  
         H73       1.0000    0.72600   0.27120   0.89750   Biso      1.000     H          0.125075  
         H74       1.0000    0.38560   0.39130   0.19770   Biso      1.000     H          0.130542  
         H75       1.0000    0.58490   0.27710   0.19810   Biso      1.000     H          0.120598  
         H76       1.0000    0.83530   0.48530   0.83470   Biso      1.000     H          0.114973  
         H77       1.0000    0.57500   0.30690   0.79280   Biso      1.000     H          0.120266  
         H78       1.0000    0.87220   0.73680   0.77900   Biso      1.000     H          0.106654  
         H79       1.0000    0.77020   0.25810   0.11660   Biso      1.000     H          0.120081  
         H80       1.0000    0.75740   0.84290   0.72350   Biso      1.000     H          0.141163  
         N1        1.0000    0.81640   0.61800   0.38740   Biso      1.000     N          -0.274986           
         N2        1.0000    0.68520   0.58470   0.29080   Biso      1.000     N          0.058392  
         N3        1.0000    0.68520   0.41530   0.79080   Biso      1.000     N          0.058392  
         N4        1.0000    0.28000   0.36850   0.42800   Biso      1.000     N          -0.273196           
         N5        1.0000    0.18360   0.61800   0.11260   Biso      1.000     N          -0.274991           
         N6        1.0000    0.31480   0.58470   0.20920   Biso      1.000     N          0.058395  
         N7        1.0000    0.44170   0.38720   0.35230   Biso      1.000     N          0.082868  
         N8        1.0000    0.72000   0.63150   0.57200   Biso      1.000     N          -0.273195           
         N9        1.0000    0.72000   0.36850   0.07200   Biso      1.000     N          -0.273196           
         N10       1.0000    0.31480   0.41530   0.70920   Biso      1.000     N          0.058395  
         N11       1.0000    0.18360   0.38200   0.61260   Biso      1.000     N          -0.274991           
         N12       1.0000    0.55830   0.38720   0.14770   Biso      1.000     N          0.082868  
         N13       1.0000    0.28000   0.63150   0.92800   Biso      1.000     N          -0.273196           
         N14       1.0000    0.81640   0.38200   0.88740   Biso      1.000     N          -0.274986           
         N15       1.0000    0.44170   0.61280   0.85230   Biso      1.000     N          0.082868  
         N16       1.0000    0.55830   0.61280   0.64770   Biso      1.000     N          0.082868  
         O1        1.0000    0.71060   0.46510   0.47550   Biso      1.000     O          -0.570545           
         O2        1.0000    0.90220   0.46050   0.54620   Biso      1.000     O          -0.587636           
         O3        1.0000    0.34180   0.96370   0.72790   Biso      1.000     O          -0.217987           
         O4        1.0000    0.04380   0.64140   0.61160   Biso      1.000     O          -0.602773           
         O5        1.0000    0.99190   0.72190   0.51940   Biso      1.000     O          -0.554382           
         O6        1.0000    0.54550   0.16420   0.65570   Biso      1.000     O          -0.195258           
         O7        1.0000    0.00810   0.72190   0.98060   Biso      1.000     O          -0.554382           
         O8        1.0000    0.09780   0.46050   0.95380   Biso      1.000     O          -0.587636           
         O9        1.0000    0.71060   0.53490   0.97550   Biso      1.000     O          -0.570544           
         O10       1.0000    0.90220   0.53950   0.04620   Biso      1.000     O          -0.587637           
         O11       1.0000    0.54550   0.83580   0.15570   Biso      1.000     O          -0.195262           
         O12       1.0000    0.34180   0.03630   0.22790   Biso      1.000     O          -0.217985           
         O13       1.0000    0.04380   0.35860   0.11160   Biso      1.000     O          -0.602773           
         O14       1.0000    0.00810   0.27810   0.48060   Biso      1.000     O          -0.554382           
         O15       1.0000    0.28940   0.46510   0.02450   Biso      1.000     O          -0.570544           
         O16       1.0000    0.95620   0.35860   0.38840   Biso      1.000     O          -0.602773           
         O17       1.0000    0.45450   0.83580   0.34430   Biso      1.000     O          -0.195262           
         O18       1.0000    0.09780   0.53950   0.45380   Biso      1.000     O          -0.587637           
         O19       1.0000    0.28940   0.53490   0.52450   Biso      1.000     O          -0.570544           
         O20       1.0000    0.95620   0.64140   0.88840   Biso      1.000     O          -0.602773           
         O21       1.0000    0.65820   0.96370   0.77210   Biso      1.000     O          -0.217982           
         O22       1.0000    0.45450   0.16420   0.84430   Biso      1.000     O          -0.195258           
         O23       1.0000    0.65820   0.03630   0.27210   Biso      1.000     O          -0.217988           
         O24       1.0000    0.99190   0.27810   0.01940   Biso      1.000     O          -0.554379 