
##########################################################################
#               Crystallographic Information Format file
#               Produced by PyCifRW module
#
#  This is a CIF file.  CIF has been adopted by the International
#  Union of Crystallography as the standard for data archiving and
#  transmission.
#
#  For information on this file format, follow the CIF links at
#  http://www.iucr.org
##########################################################################

data_image0

_cell_length_a                          12.88
_cell_length_b                          16.87
_cell_length_c                          17.407
_cell_angle_alpha                       90
_cell_angle_beta                        90
_cell_angle_gamma                       90
_symmetry_space_group_name_H-M          'P 1'
_symmetry_int_tables_number             1
loop_
  _symmetry_equiv_pos_as_xyz
         'x, y, z' 
loop_
  _atom_site_label
  _atom_site_occupancy
  _atom_site_fract_x
  _atom_site_fract_y
  _atom_site_fract_z
  _atom_site_thermal_displace_type
  _atom_site_B_iso_or_equiv
  _atom_site_type_symbol
  _atom_site_charge
         C1        1.0000    0.09216   0.35647   0.02875   Biso      1.000     C          0.38445   
         C2        1.0000    0.82989   0.77697   0.97019   Biso      1.000     C          0.392273  
         C3        1.0000    0.79770   0.76360   0.89264   Biso      1.000     C          -0.252992           
         C4        1.0000    0.81870   0.69213   0.85584   Biso      1.000     C          -0.06882200000000001          
         C5        1.0000    0.87270   0.63318   0.89394   Biso      1.000     C          -0.269775           
         C6        1.0000    0.59216   0.14353   0.52875   Biso      1.000     C          0.38445   
         C7        1.0000    0.61665   0.21502   0.49310   Biso      1.000     C          -0.41501400000000005          
         C8        1.0000    0.37270   0.36682   0.60606   Biso      1.000     C          -0.269775           
         C9        1.0000    0.31870   0.30787   0.64416   Biso      1.000     C          -0.06882200000000001          
         C10       1.0000    0.29770   0.23640   0.60736   Biso      1.000     C          -0.252992           
         C11       1.0000    0.88335   0.71502   0.00690   Biso      1.000     C          -0.41501400000000005          
         C12       1.0000    0.32989   0.22303   0.52981   Biso      1.000     C          0.392273  
         C13       1.0000    0.40784   0.35647   0.52875   Biso      1.000     C          0.38445   
         C14       1.0000    0.12730   0.86682   0.89394   Biso      1.000     C          -0.269775           
         C15       1.0000    0.18130   0.80787   0.85584   Biso      1.000     C          -0.06882200000000001          
         C16       1.0000    0.20230   0.73640   0.89264   Biso      1.000     C          -0.252992           
         C17       1.0000    0.17011   0.72303   0.97019   Biso      1.000     C          0.392273  
         C18       1.0000    0.11665   0.78498   0.00690   Biso      1.000     C          -0.41501400000000005          
         C19       1.0000    0.09216   0.85647   0.97125   Biso      1.000     C          0.38445   
         C20       1.0000    0.62730   0.13318   0.60606   Biso      1.000     C          -0.269775           
         C21       1.0000    0.68130   0.19213   0.64416   Biso      1.000     C          -0.06882200000000001          
         C22       1.0000    0.38335   0.28498   0.49310   Biso      1.000     C          -0.41501400000000005          
         C23       1.0000    0.90784   0.64353   0.97125   Biso      1.000     C          0.38445   
         C24       1.0000    0.62730   0.63318   0.39394   Biso      1.000     C          -0.269775           
         C25       1.0000    0.68130   0.69213   0.35584   Biso      1.000     C          -0.06882200000000001          
         C26       1.0000    0.11665   0.28498   0.99310   Biso      1.000     C          -0.41501400000000005          
         C27       1.0000    0.17011   0.22303   0.02981   Biso      1.000     C          0.392273  
         C28       1.0000    0.20230   0.23640   0.10736   Biso      1.000     C          -0.252992           
         C29       1.0000    0.18130   0.30787   0.14416   Biso      1.000     C          -0.06882200000000001          
         C30       1.0000    0.12730   0.36682   0.10606   Biso      1.000     C          -0.269775           
         C31       1.0000    0.40784   0.85647   0.47125   Biso      1.000     C          0.38445   
         C32       1.0000    0.38335   0.78498   0.50690   Biso      1.000     C          -0.41501400000000005          
         C33       1.0000    0.32989   0.72303   0.47019   Biso      1.000     C          0.392273  
         C34       1.0000    0.29770   0.73640   0.39264   Biso      1.000     C          -0.252992           
         C35       1.0000    0.31870   0.80787   0.35584   Biso      1.000     C          -0.06882200000000001          
         C36       1.0000    0.37270   0.86682   0.39394   Biso      1.000     C          -0.269775           
         C37       1.0000    0.90784   0.14353   0.02875   Biso      1.000     C          0.38445   
         C38       1.0000    0.88335   0.21502   0.99310   Biso      1.000     C          -0.41501400000000005          
         C39       1.0000    0.82989   0.27697   0.02981   Biso      1.000     C          0.392273  
         C40       1.0000    0.79770   0.26360   0.10736   Biso      1.000     C          -0.252992           
         C41       1.0000    0.81870   0.19213   0.14416   Biso      1.000     C          -0.06882200000000001          
         C42       1.0000    0.87270   0.13318   0.10606   Biso      1.000     C          -0.269775           
         C43       1.0000    0.59216   0.64353   0.47125   Biso      1.000     C          0.38445   
         C44       1.0000    0.61665   0.71502   0.50690   Biso      1.000     C          -0.41501400000000005          
         C45       1.0000    0.67011   0.77697   0.47019   Biso      1.000     C          0.392273  
         C46       1.0000    0.70230   0.76360   0.39264   Biso      1.000     C          -0.252992           
         C47       1.0000    0.70230   0.26360   0.60736   Biso      1.000     C          -0.252992           
         C48       1.0000    0.67011   0.27697   0.52981   Biso      1.000     C          0.392273  
         Ca1       1.0000    0.37430   0.53199   0.45845   Biso      1.000     Ca          1.477977  
         Ca2       1.0000    0.87430   0.46801   0.04155   Biso      1.000     Ca          1.477977  
         Ca3       1.0000    0.26145   0.64185   0.63571   Biso      1.000     Ca          1.603223  
         Ca4       1.0000    0.12570   0.03199   0.04155   Biso      1.000     Ca          1.477977  
         Ca5       1.0000    0.23855   0.14185   0.86429   Biso      1.000     Ca          1.603223  
         Ca6       1.0000    0.62570   0.96801   0.45845   Biso      1.000     Ca          1.477977  
         Ca7       1.0000    0.73855   0.85815   0.63571   Biso      1.000     Ca          1.603223  
         Ca8       1.0000    0.76145   0.35815   0.86429   Biso      1.000     Ca          1.603223  
         Ca9       1.0000    0.62570   0.46801   0.54155   Biso      1.000     Ca          1.477977  
         Ca10      1.0000    0.73855   0.35815   0.36429   Biso      1.000     Ca          1.603224  
         Ca11      1.0000    0.87430   0.96801   0.95845   Biso      1.000     Ca          1.477977  
         Ca12      1.0000    0.76145   0.85815   0.13571   Biso      1.000     Ca          1.603224  
         Ca13      1.0000    0.37430   0.03199   0.54155   Biso      1.000     Ca          1.477977  
         Ca14      1.0000    0.26145   0.14185   0.36429   Biso      1.000     Ca          1.603223  
         Ca15      1.0000    0.12570   0.53199   0.95845   Biso      1.000     Ca          1.477977  
         Ca16      1.0000    0.23855   0.64185   0.13571   Biso      1.000     Ca          1.603223  
         H1        1.0000    0.09650   0.27780   0.94230   Biso      1.000     H          0.135228  
         H2        1.0000    0.20360   0.31600   0.19440   Biso      1.000     H          0.128048  
         H3        1.0000    0.40350   0.27780   0.44230   Biso      1.000     H          0.135228  
         H4        1.0000    0.40350   0.77780   0.55770   Biso      1.000     H          0.135228  
         H5        1.0000    0.29640   0.31600   0.69440   Biso      1.000     H          0.128048  
         H6        1.0000    0.29640   0.81600   0.30560   Biso      1.000     H          0.128048  
         H7        1.0000    0.90350   0.22220   0.94230   Biso      1.000     H          0.135228  
         H8        1.0000    0.59650   0.72220   0.55770   Biso      1.000     H          0.135228  
         H9        1.0000    0.70360   0.68400   0.30560   Biso      1.000     H          0.128048  
         H10       1.0000    0.79640   0.18400   0.19440   Biso      1.000     H          0.128048  
         H11       1.0000    0.90350   0.72220   0.05770   Biso      1.000     H          0.135228  
         H12       1.0000    0.79640   0.68400   0.80560   Biso      1.000     H          0.128048  
         H13       1.0000    0.59650   0.22220   0.44230   Biso      1.000     H          0.135228  
         H14       1.0000    0.70360   0.18400   0.69440   Biso      1.000     H          0.128048  
         H15       1.0000    0.09650   0.77780   0.05770   Biso      1.000     H          0.135228  
         H16       1.0000    0.20360   0.81600   0.80560   Biso      1.000     H          0.128048  
         O1        1.0000    0.79003   0.81161   0.26734   Biso      1.000     O          -0.753337           
         O2        1.0000    0.69000   0.84412   0.50516   Biso      1.000     O          -0.781092           
         O3        1.0000    0.53933   0.58690   0.50711   Biso      1.000     O          -0.734937           
         O4        1.0000    0.72280   0.91148   0.35356   Biso      1.000     O          -0.6973560000000001           
         O5        1.0000    0.87742   0.83865   0.38728   Biso      1.000     O          -0.619508           
         O6        1.0000    0.84082   0.98293   0.10066   Biso      1.000     O          -0.7983210000000001           
         O7        1.0000    0.64818   0.54381   0.27355   Biso      1.000     O          -0.604592           
         O8        1.0000    0.70997   0.81161   0.76734   Biso      1.000     O          -0.753337           
         O9        1.0000    0.65918   0.48293   0.39934   Biso      1.000     O          -0.7983210000000001           
         O10       1.0000    0.81000   0.84412   0.00516   Biso      1.000     O          -0.781092           
         O11       1.0000    0.96067   0.58690   0.00711   Biso      1.000     O          -0.734937           
         O12       1.0000    0.77720   0.91148   0.85356   Biso      1.000     O          -0.6973560000000001           
         O13       1.0000    0.62258   0.83865   0.88728   Biso      1.000     O          -0.619508           
         O14       1.0000    0.85182   0.54381   0.77355   Biso      1.000     O          -0.604592           
         O15       1.0000    0.00725   0.52748   0.85069   Biso      1.000     O          -0.661147           
         O16       1.0000    0.00725   0.02748   0.14931   Biso      1.000     O          -0.661147           
         O17       1.0000    0.49275   0.52748   0.35069   Biso      1.000     O          -0.661147           
         O18       1.0000    0.85182   0.04381   0.22645   Biso      1.000     O          -0.604592           
         O19       1.0000    0.99275   0.47252   0.14931   Biso      1.000     O          -0.661147           
         O20       1.0000    0.62258   0.33865   0.11272   Biso      1.000     O          -0.619508           
         O21       1.0000    0.22280   0.08852   0.14644   Biso      1.000     O          -0.6973560000000001           
         O22       1.0000    0.37742   0.16135   0.11272   Biso      1.000     O          -0.619508           
         O23       1.0000    0.29003   0.18839   0.23266   Biso      1.000     O          -0.753337           
         O24       1.0000    0.14818   0.45619   0.22645   Biso      1.000     O          -0.604592           
         O25       1.0000    0.84082   0.48293   0.89934   Biso      1.000     O          -0.7983210000000001           
         O26       1.0000    0.15918   0.51707   0.10066   Biso      1.000     O          -0.7983210000000001           
         O27       1.0000    0.31000   0.65588   0.50516   Biso      1.000     O          -0.781092           
         O28       1.0000    0.46067   0.91310   0.50711   Biso      1.000     O          -0.734937           
         O29       1.0000    0.27720   0.58852   0.35356   Biso      1.000     O          -0.6973560000000001           
         O30       1.0000    0.12258   0.66135   0.38728   Biso      1.000     O          -0.619508           
         O31       1.0000    0.20997   0.68839   0.26734   Biso      1.000     O          -0.753337           
         O32       1.0000    0.35182   0.95619   0.27355   Biso      1.000     O          -0.604592           
         O33       1.0000    0.50725   0.97252   0.35069   Biso      1.000     O          -0.661147           
         O34       1.0000    0.34082   0.01707   0.39934   Biso      1.000     O          -0.7983210000000001           
         O35       1.0000    0.81000   0.34412   0.99484   Biso      1.000     O          -0.781092           
         O36       1.0000    0.96067   0.08690   0.99289   Biso      1.000     O          -0.734937           
         O37       1.0000    0.77720   0.41148   0.14644   Biso      1.000     O          -0.6973560000000001           
         O38       1.0000    0.70997   0.31161   0.23266   Biso      1.000     O          -0.753337           
         O39       1.0000    0.69000   0.34412   0.49484   Biso      1.000     O          -0.781092           
         O40       1.0000    0.15918   0.01707   0.89934   Biso      1.000     O          -0.7983210000000001           
         O41       1.0000    0.72280   0.41148   0.64644   Biso      1.000     O          -0.6973560000000001           
         O42       1.0000    0.03933   0.41310   0.99289   Biso      1.000     O          -0.734937           
         O43       1.0000    0.34082   0.51707   0.60066   Biso      1.000     O          -0.7983210000000001           
         O44       1.0000    0.53933   0.08690   0.49289   Biso      1.000     O          -0.734937           
         O45       1.0000    0.35182   0.45619   0.72645   Biso      1.000     O          -0.604592           
         O46       1.0000    0.20997   0.18839   0.73266   Biso      1.000     O          -0.753337           
         O47       1.0000    0.12258   0.16135   0.61272   Biso      1.000     O          -0.619508           
         O48       1.0000    0.27720   0.08852   0.64644   Biso      1.000     O          -0.6973560000000001           
         O49       1.0000    0.46067   0.41310   0.49289   Biso      1.000     O          -0.734937           
         O50       1.0000    0.31000   0.15588   0.49484   Biso      1.000     O          -0.781092           
         O51       1.0000    0.99275   0.97252   0.85069   Biso      1.000     O          -0.661147           
         O52       1.0000    0.50725   0.47252   0.64931   Biso      1.000     O          -0.661147           
         O53       1.0000    0.29003   0.68839   0.76734   Biso      1.000     O          -0.753337           
         O54       1.0000    0.87742   0.33865   0.61272   Biso      1.000     O          -0.619508           
         O55       1.0000    0.14818   0.95619   0.77355   Biso      1.000     O          -0.604592           
         O56       1.0000    0.79003   0.31161   0.73266   Biso      1.000     O          -0.753337           
         O57       1.0000    0.64818   0.04381   0.72645   Biso      1.000     O          -0.604592           
         O58       1.0000    0.49275   0.02748   0.64931   Biso      1.000     O          -0.661147           
         O59       1.0000    0.19000   0.15588   0.99484   Biso      1.000     O          -0.781092           
         O60       1.0000    0.19000   0.65588   0.00516   Biso      1.000     O          -0.781092           
         O61       1.0000    0.03933   0.91310   0.00711   Biso      1.000     O          -0.734937           
         O62       1.0000    0.37742   0.66135   0.88728   Biso      1.000     O          -0.619508           
         O63       1.0000    0.22280   0.58852   0.85356   Biso      1.000     O          -0.6973560000000001           
         O64       1.0000    0.65918   0.98293   0.60066   Biso      1.000     O          -0.7983210000000001           
         S1        1.0000    0.39521   0.45834   0.64932   Biso      1.000     S          1.2546620000000002  
         S2        1.0000    0.22250   0.16419   0.65259   Biso      1.000     S          1.281032  
         S3        1.0000    0.10479   0.95834   0.85068   Biso      1.000     S          1.2546620000000002  
         S4        1.0000    0.27750   0.66419   0.84741   Biso      1.000     S          1.281032  
         S5        1.0000    0.60479   0.04166   0.64932   Biso      1.000     S          1.2546620000000002  
         S6        1.0000    0.77750   0.33581   0.65259   Biso      1.000     S          1.281032  
         S7        1.0000    0.72250   0.83581   0.84741   Biso      1.000     S          1.281031  
         S8        1.0000    0.60479   0.54166   0.35068   Biso      1.000     S          1.2546620000000002  
         S9        1.0000    0.77750   0.83581   0.34741   Biso      1.000     S          1.281032  
         S10       1.0000    0.89521   0.04166   0.14932   Biso      1.000     S          1.2546620000000002  
         S11       1.0000    0.39521   0.95834   0.35068   Biso      1.000     S          1.2546620000000002  
         S12       1.0000    0.22250   0.66419   0.34741   Biso      1.000     S          1.281031  
         S13       1.0000    0.10479   0.45834   0.14932   Biso      1.000     S          1.2546620000000002  
         S14       1.0000    0.27750   0.16419   0.15259   Biso      1.000     S          1.281031  
         S15       1.0000    0.89521   0.54166   0.85068   Biso      1.000     S          1.2546620000000002  
         S16       1.0000    0.72250   0.33581   0.15259   Biso      1.000     S          1.281032 