
##########################################################################
#               Crystallographic Information Format file
#               Produced by PyCifRW module
#
#  This is a CIF file.  CIF has been adopted by the International
#  Union of Crystallography as the standard for data archiving and
#  transmission.
#
#  For information on this file format, follow the CIF links at
#  http://www.iucr.org
##########################################################################

data_image0

_cell_length_a                          5.8767
_cell_length_b                          7.5012
_cell_length_c                          16.476
_cell_angle_alpha                       90
_cell_angle_beta                        90
_cell_angle_gamma                       94.47
_symmetry_space_group_name_H-M          'P 1'
_symmetry_int_tables_number             1
loop_
  _symmetry_equiv_pos_as_xyz
         'x, y, z' 
loop_
  _atom_site_label
  _atom_site_occupancy
  _atom_site_fract_x
  _atom_site_fract_y
  _atom_site_fract_z
  _atom_site_thermal_displace_type
  _atom_site_B_iso_or_equiv
  _atom_site_type_symbol
  _atom_site_charge
         Ba1       1.0000    0.81964   0.71304   0.53280   Biso      1.000     Ba          1.5579020000000001  
         Ba2       1.0000    0.18036   0.28696   0.03280   Biso      1.000     Ba          1.5579    
         Ba3       1.0000    0.18036   0.28696   0.46720   Biso      1.000     Ba          1.5579    
         Ba4       1.0000    0.81964   0.71304   0.96720   Biso      1.000     Ba          1.557901  
         C1        1.0000    0.67660   0.22790   0.75000   Biso      1.000     C          -0.078225           
         C2        1.0000    0.92530   0.54920   0.25000   Biso      1.000     C          -0.39253699999999997          
         C3        1.0000    0.32340   0.77210   0.25000   Biso      1.000     C          -0.078226           
         C4        1.0000    0.01930   0.60230   0.17510   Biso      1.000     C          0.37800900000000004           
         C5        1.0000    0.22610   0.71710   0.17684   Biso      1.000     C          -0.281994           
         C6        1.0000    0.98070   0.39770   0.67510   Biso      1.000     C          0.37800900000000004           
         C7        1.0000    0.77390   0.28290   0.67684   Biso      1.000     C          -0.281994           
         C8        1.0000    0.07470   0.45080   0.75000   Biso      1.000     C          -0.392536           
         C9        1.0000    0.77390   0.28290   0.82316   Biso      1.000     C          -0.281995           
         C10       1.0000    0.01930   0.60230   0.32490   Biso      1.000     C          0.37801   
         C11       1.0000    0.22610   0.71710   0.32316   Biso      1.000     C          -0.281994           
         C12       1.0000    0.98070   0.39770   0.82490   Biso      1.000     C          0.37801   
         H1        1.0000    0.20810   0.52620   0.75000   Biso      1.000     H          0.151544  
         H2        1.0000    0.54330   0.15250   0.75000   Biso      1.000     H          0.127667  
         H3        1.0000    0.79190   0.47380   0.25000   Biso      1.000     H          0.151544  
         H4        1.0000    0.45670   0.84750   0.25000   Biso      1.000     H          0.127667  
         O1        1.0000    0.07420   0.45650   0.89375   Biso      1.000     O          -0.7211529999999999           
         O2        1.0000    0.44270   0.10170   0.60064   Biso      1.000     O          -0.620348           
         O3        1.0000    0.63350   0.35330   0.53107   Biso      1.000     O          -0.730773           
         O4        1.0000    0.55730   0.89830   0.10064   Biso      1.000     O          -0.620347           
         O5        1.0000    0.07420   0.45650   0.60625   Biso      1.000     O          -0.7211529999999999           
         O6        1.0000    0.83050   0.08830   0.94936   Biso      1.000     O          -0.71362  
         O7        1.0000    0.36650   0.64670   0.03107   Biso      1.000     O          -0.730773           
         O8        1.0000    0.83050   0.08830   0.55064   Biso      1.000     O          -0.71362  
         O9        1.0000    0.63350   0.35330   0.96893   Biso      1.000     O          -0.730773           
         O10       1.0000    0.36650   0.64670   0.46893   Biso      1.000     O          -0.730772           
         O11       1.0000    0.92580   0.54350   0.39375   Biso      1.000     O          -0.7211529999999999           
         O12       1.0000    0.16950   0.91170   0.44936   Biso      1.000     O          -0.71362  
         O13       1.0000    0.55730   0.89830   0.39936   Biso      1.000     O          -0.620348           
         O14       1.0000    0.16950   0.91170   0.05064   Biso      1.000     O          -0.713621           
         O15       1.0000    0.44270   0.10170   0.89936   Biso      1.000     O          -0.620347           
         O16       1.0000    0.92580   0.54350   0.10625   Biso      1.000     O          -0.7211529999999999           
         S1        1.0000    0.33876   0.79912   0.08511   Biso      1.000     S          1.227753  
         S2        1.0000    0.66124   0.20088   0.58511   Biso      1.000     S          1.227753  
         S3        1.0000    0.66124   0.20088   0.91489   Biso      1.000     S          1.227754  
         S4        1.0000    0.33876   0.79912   0.41489   Biso      1.000     S          1.227754 