
##########################################################################
#               Crystallographic Information Format file
#               Produced by PyCifRW module
#
#  This is a CIF file.  CIF has been adopted by the International
#  Union of Crystallography as the standard for data archiving and
#  transmission.
#
#  For information on this file format, follow the CIF links at
#  http://www.iucr.org
##########################################################################

data_image0

_cell_length_a                          4.968
_cell_length_b                          11.621
_cell_length_c                          19.669
_cell_angle_alpha                       107.16
_cell_angle_beta                        90
_cell_angle_gamma                       90
_symmetry_space_group_name_H-M          'P 1'
_symmetry_int_tables_number             1
loop_
  _symmetry_equiv_pos_as_xyz
         'x, y, z' 
loop_
  _atom_site_label
  _atom_site_occupancy
  _atom_site_fract_x
  _atom_site_fract_y
  _atom_site_fract_z
  _atom_site_thermal_displace_type
  _atom_site_B_iso_or_equiv
  _atom_site_type_symbol
  _atom_site_charge
         C1        1.0000    0.36070   0.20620   0.93670   Biso      1.000     C          -0.24753499999999998          
         C2        1.0000    0.34700   0.73290   0.93030   Biso      1.000     C          -0.28128400000000003          
         C3        1.0000    0.36070   0.79380   0.06330   Biso      1.000     C          -0.24753499999999998          
         C4        1.0000    0.59820   0.76110   0.95970   Biso      1.000     C          -0.083442           
         C5        1.0000    0.59950   0.79040   0.03620   Biso      1.000     C          -0.069293           
         C6        1.0000    0.84700   0.26630   0.56850   Biso      1.000     C          -0.26573  
         C7        1.0000    0.86070   0.13290   0.53810   Biso      1.000     C          -0.105173           
         C8        1.0000    0.89610   0.10290   0.46300   Biso      1.000     C          -0.07297100000000001          
         C9        1.0000    0.83300   0.18780   0.43570   Biso      1.000     C          -0.24980500000000003          
         C10       1.0000    0.59820   0.23890   0.04030   Biso      1.000     C          -0.083445           
         C11       1.0000    0.59950   0.20960   0.96380   Biso      1.000     C          -0.069293           
         C12       1.0000    0.83300   0.81220   0.56430   Biso      1.000     C          -0.249852           
         C13       1.0000    0.84700   0.73370   0.43150   Biso      1.000     C          -0.265731           
         C14       1.0000    0.86070   0.86710   0.46190   Biso      1.000     C          -0.10517699999999999          
         C15       1.0000    0.89610   0.89710   0.53700   Biso      1.000     C          -0.072924           
         C16       1.0000    0.34700   0.26710   0.06970   Biso      1.000     C          -0.28128200000000003          
         H1        1.0000    0.84766   0.92384   0.43510   Biso      1.000     H          0.117202  
         H2        1.0000    0.75726   0.76122   0.93202   Biso      1.000     H          0.120896  
         H3        1.0000    0.76093   0.80588   0.06421   Biso      1.000     H          0.127911  
         H4        1.0000    0.84766   0.07616   0.56490   Biso      1.000     H          0.117201  
         H5        1.0000    0.96171   0.02587   0.43491   Biso      1.000     H          0.134775  
         H6        1.0000    0.75726   0.23878   0.06798   Biso      1.000     H          0.120896  
         H7        1.0000    0.76093   0.19412   0.93579   Biso      1.000     H          0.127912  
         H8        1.0000    0.96171   0.97413   0.56509   Biso      1.000     H          0.134773  
         Mn1       1.0000    0.72526   0.61730   0.73122   Biso      1.000     Mn          1.160936  
         Mn2       1.0000    0.72526   0.38270   0.26878   Biso      1.000     Mn          1.160935  
         Mn3       1.0000    0.22590   0.38140   0.76600   Biso      1.000     Mn          1.1341729999999999  
         Mn4       1.0000    0.22395   0.12132   0.24223   Biso      1.000     Mn          1.142692  
         Mn5       1.0000    0.72065   0.12153   0.74303   Biso      1.000     Mn          1.116873  
         Mn6       1.0000    0.72065   0.87847   0.25697   Biso      1.000     Mn          1.116874  
         Mn7       1.0000    0.22590   0.61860   0.23400   Biso      1.000     Mn          1.134174  
         Mn8       1.0000    0.22395   0.87868   0.75777   Biso      1.000     Mn          1.142691  
         O1        1.0000    0.48400   0.33390   0.67460   Biso      1.000     O          -0.745104           
         O2        1.0000    0.92300   0.25830   0.31460   Biso      1.000     O          -0.782301           
         O3        1.0000    0.92000   0.04520   0.30330   Biso      1.000     O          -0.7886569999999999           
         O4        1.0000    0.48700   0.16670   0.33140   Biso      1.000     O          -0.769487           
         O5        1.0000    0.43200   0.25060   0.20100   Biso      1.000     O          -0.775515           
         O6        1.0000    0.43500   0.45150   0.19300   Biso      1.000     O          -0.785461           
         O7        1.0000    0.99220   0.33440   0.17820   Biso      1.000     O          -0.7727970000000001           
         O8        1.0000    0.99220   0.66560   0.82180   Biso      1.000     O          -0.772796           
         O9        1.0000    0.42900   0.26670   0.81530   Biso      1.000     O          -0.767806           
         O10       1.0000    0.43000   0.04590   0.80970   Biso      1.000     O          -0.764125           
         O11       1.0000    0.98050   0.16420   0.83280   Biso      1.000     O          -0.737794           
         O12       1.0000    0.92800   0.76010   0.30080   Biso      1.000     O          -0.767452           
         O13       1.0000    0.93200   0.54940   0.31370   Biso      1.000     O          -0.775115           
         O14       1.0000    0.48400   0.66610   0.32540   Biso      1.000     O          -0.745105           
         O15       1.0000    0.92300   0.74170   0.68540   Biso      1.000     O          -0.782301           
         O16       1.0000    0.93200   0.45060   0.68630   Biso      1.000     O          -0.775116           
         O17       1.0000    0.92800   0.23990   0.69920   Biso      1.000     O          -0.767452           
         O18       1.0000    0.48700   0.83330   0.66860   Biso      1.000     O          -0.769487           
         O19       1.0000    0.43000   0.95410   0.19030   Biso      1.000     O          -0.764125           
         O20       1.0000    0.42900   0.73330   0.18470   Biso      1.000     O          -0.767806           
         O21       1.0000    0.43500   0.54850   0.80700   Biso      1.000     O          -0.785461           
         O22       1.0000    0.43200   0.74940   0.79900   Biso      1.000     O          -0.775516           
         O23       1.0000    0.98050   0.83580   0.16720   Biso      1.000     O          -0.737793           
         O24       1.0000    0.92000   0.95480   0.69670   Biso      1.000     O          -0.7886569999999999           
         P1        1.0000    0.28330   0.16780   0.84465   Biso      1.000     P          1.250466  
         P2        1.0000    0.28820   0.32680   0.16375   Biso      1.000     P          1.306449  
         P3        1.0000    0.78690   0.16750   0.34250   Biso      1.000     P          1.31209   
         P4        1.0000    0.78450   0.32670   0.66260   Biso      1.000     P          1.265482  
         P5        1.0000    0.28330   0.83220   0.15535   Biso      1.000     P          1.250466  
         P6        1.0000    0.78450   0.67330   0.33740   Biso      1.000     P          1.265482  
         P7        1.0000    0.78690   0.83250   0.65750   Biso      1.000     P          1.312095  
         P8        1.0000    0.28820   0.67320   0.83625   Biso      1.000     P          1.306449  
         S1        1.0000    0.80670   0.32770   0.50280   Biso      1.000     S          0.21863000000000002           
         S2        1.0000    0.11430   0.25570   0.00319   Biso      1.000     S          0.19827   
         S3        1.0000    0.80670   0.67230   0.49720   Biso      1.000     S          0.218635  
         S4        1.0000    0.11430   0.74430   0.99681   Biso      1.000     S          0.198272 