
##########################################################################
#               Crystallographic Information Format file
#               Produced by PyCifRW module
#
#  This is a CIF file.  CIF has been adopted by the International
#  Union of Crystallography as the standard for data archiving and
#  transmission.
#
#  For information on this file format, follow the CIF links at
#  http://www.iucr.org
##########################################################################

data_image0

_cell_length_a                          9.666
_cell_length_b                          11.692
_cell_length_c                          12.366
_cell_angle_alpha                       72.75
_cell_angle_beta                        67.912
_cell_angle_gamma                       76.869
_symmetry_space_group_name_H-M          'P 1'
_symmetry_int_tables_number             1
loop_
  _symmetry_equiv_pos_as_xyz
         'x, y, z' 
loop_
  _atom_site_label
  _atom_site_occupancy
  _atom_site_fract_x
  _atom_site_fract_y
  _atom_site_fract_z
  _atom_site_thermal_displace_type
  _atom_site_B_iso_or_equiv
  _atom_site_type_symbol
  _atom_site_charge
         C1        1.0000    0.54330   0.89516   0.22972   Biso      1.000     C          -0.164423           
         C2        1.0000    0.95246   0.20569   0.25392   Biso      1.000     C          -0.013    
         C3        1.0000    0.93632   0.30952   0.16739   Biso      1.000     C          -0.16075899999999999          
         C4        1.0000    0.05073   0.38182   0.11236   Biso      1.000     C          0.179076  
         C5        1.0000    0.17816   0.35186   0.14598   Biso      1.000     C          -0.16516199999999998          
         C6        1.0000    0.55552   0.79923   0.43610   Biso      1.000     C          0.649564  
         C7        1.0000    0.57182   0.55145   0.16284   Biso      1.000     C          0.663373  
         C8        1.0000    0.55816   0.79175   0.31572   Biso      1.000     C          -0.019331           
         C9        1.0000    0.56993   0.68129   0.29151   Biso      1.000     C          -0.10201  
         C10       1.0000    0.08465   0.17360   0.28242   Biso      1.000     C          -0.122814           
         C11       1.0000    0.56434   0.67393   0.18314   Biso      1.000     C          -0.014878           
         C12       1.0000    0.53580   0.88894   0.12208   Biso      1.000     C          0.180444  
         C13       1.0000    0.44448   0.20077   0.56390   Biso      1.000     C          0.649563  
         C14       1.0000    0.66287   0.78185   0.73691   Biso      1.000     C          0.668083  
         C15       1.0000    0.17328   0.87264   0.68008   Biso      1.000     C          0.6800229999999999  
         C16       1.0000    0.80212   0.75263   0.77134   Biso      1.000     C          -0.031894           
         C17       1.0000    0.91535   0.82640   0.71758   Biso      1.000     C          -0.122813           
         C18       1.0000    0.04754   0.79431   0.74608   Biso      1.000     C          -0.013    
         C19       1.0000    0.06368   0.69048   0.83261   Biso      1.000     C          -0.160761           
         C20       1.0000    0.54770   0.77797   0.09842   Biso      1.000     C          -0.183501           
         C21       1.0000    0.19788   0.24737   0.22866   Biso      1.000     C          -0.031888           
         C22       1.0000    0.82672   0.12736   0.31992   Biso      1.000     C          0.680022  
         C23       1.0000    0.33713   0.21815   0.26309   Biso      1.000     C          0.668082  
         C24       1.0000    0.45670   0.10484   0.77028   Biso      1.000     C          -0.164421           
         C25       1.0000    0.46420   0.11106   0.87792   Biso      1.000     C          0.180454  
         C26       1.0000    0.45230   0.22203   0.90158   Biso      1.000     C          -0.183509           
         C27       1.0000    0.43566   0.32607   0.81686   Biso      1.000     C          -0.014872           
         C28       1.0000    0.43007   0.31871   0.70849   Biso      1.000     C          -0.102014           
         C29       1.0000    0.44184   0.20825   0.68428   Biso      1.000     C          -0.019328           
         C30       1.0000    0.42818   0.44855   0.83716   Biso      1.000     C          0.6633720000000001  
         C31       1.0000    0.94927   0.61818   0.88764   Biso      1.000     C          0.179084  
         C32       1.0000    0.82184   0.64814   0.85402   Biso      1.000     C          -0.165154           
         H1        1.0000    0.54430   0.77390   0.02550   Biso      1.000     H          0.107867  
         H2        1.0000    0.84950   0.33060   0.14630   Biso      1.000     H          0.114977  
         H3        1.0000    0.09720   0.10190   0.33810   Biso      1.000     H          0.122483  
         H4        1.0000    0.53820   0.97000   0.24400   Biso      1.000     H          0.11840099999999999           
         H5        1.0000    0.90280   0.89810   0.66190   Biso      1.000     H          0.122483  
         H6        1.0000    0.15050   0.66940   0.85370   Biso      1.000     H          0.114975  
         H7        1.0000    0.74840   0.59650   0.88810   Biso      1.000     H          0.115292  
         H8        1.0000    0.41820   0.38930   0.65140   Biso      1.000     H          0.133922  
         H9        1.0000    0.45570   0.22610   0.97450   Biso      1.000     H          0.107866  
         H10       1.0000    0.46180   0.03000   0.75600   Biso      1.000     H          0.118402  
         H11       1.0000    0.58180   0.61070   0.34860   Biso      1.000     H          0.133922  
         H12       1.0000    0.25160   0.40350   0.11190   Biso      1.000     H          0.115292  
         Li1       1.0000    0.54690   0.38330   0.05330   Biso      1.000     Li          0.859662  
         Li2       1.0000    0.44510   0.69260   0.69480   Biso      1.000     Li          0.8079609999999999  
         Li3       1.0000    0.76600   0.89150   0.48350   Biso      1.000     Li          0.864186  
         Li4       1.0000    0.46510   0.92740   0.61250   Biso      1.000     Li          0.813901  
         Li5       1.0000    0.45310   0.61670   0.94670   Biso      1.000     Li          0.859661  
         Li6       1.0000    0.55490   0.30740   0.30520   Biso      1.000     Li          0.8079609999999999  
         Li7       1.0000    0.23400   0.10850   0.51650   Biso      1.000     Li          0.864187  
         Li8       1.0000    0.53490   0.07260   0.38750   Biso      1.000     Li          0.813901  
         N1        1.0000    0.48785   0.99738   0.95571   Biso      1.000     N          -0.127476           
         N2        1.0000    0.95118   0.50832   0.97724   Biso      1.000     N          -0.120085           
         N3        1.0000    0.51215   0.00262   0.04429   Biso      1.000     N          -0.12737  
         N4        1.0000    0.04882   0.49168   0.02276   Biso      1.000     N          -0.119986           
         O1        1.0000    0.45804   0.45396   0.92592   Biso      1.000     O          -0.797064           
         O2        1.0000    0.42781   0.09914   0.55542   Biso      1.000     O          -0.851568           
         O3        1.0000    0.14722   0.96873   0.61068   Biso      1.000     O          -0.698635           
         O4        1.0000    0.29661   0.83535   0.69816   Biso      1.000     O          -0.754955           
         O5        1.0000    0.56373   0.71299   0.79073   Biso      1.000     O          -0.744159           
         O6        1.0000    0.65167   0.87305   0.65482   Biso      1.000     O          -0.750189           
         O7        1.0000    0.53674   0.70917   0.51970   Biso      1.000     O          -0.61445  
         O8        1.0000    0.70339   0.16465   0.30184   Biso      1.000     O          -0.754955           
         O9        1.0000    0.54196   0.54604   0.07408   Biso      1.000     O          -0.797064           
         O10       1.0000    0.57219   0.90086   0.44458   Biso      1.000     O          -0.851567           
         O11       1.0000    0.85278   0.03127   0.38932   Biso      1.000     O          -0.698635           
         O12       1.0000    0.39536   0.53681   0.76287   Biso      1.000     O          -0.6429729999999999           
         O13       1.0000    0.43627   0.28701   0.20927   Biso      1.000     O          -0.744159           
         O14       1.0000    0.34833   0.12695   0.34518   Biso      1.000     O          -0.750189           
         O15       1.0000    0.60464   0.46319   0.23713   Biso      1.000     O          -0.6429729999999999           
         O16       1.0000    0.46326   0.29083   0.48030   Biso      1.000     O          -0.61445 