
##########################################################################
#               Crystallographic Information Format file
#               Produced by PyCifRW module
#
#  This is a CIF file.  CIF has been adopted by the International
#  Union of Crystallography as the standard for data archiving and
#  transmission.
#
#  For information on this file format, follow the CIF links at
#  http://www.iucr.org
##########################################################################

data_image0

_cell_length_a                          17.1227
_cell_length_b                          17.1227
_cell_length_c                          17.1227
_cell_angle_alpha                       90
_cell_angle_beta                        90
_cell_angle_gamma                       90
_symmetry_space_group_name_H-M          'P 1'
_symmetry_int_tables_number             1
loop_
  _symmetry_equiv_pos_as_xyz
         'x, y, z' 
loop_
  _atom_site_label
  _atom_site_occupancy
  _atom_site_fract_x
  _atom_site_fract_y
  _atom_site_fract_z
  _atom_site_thermal_displace_type
  _atom_site_B_iso_or_equiv
  _atom_site_type_symbol
  _atom_site_charge
         C1        1.0000    0.45570   0.45570   0.83030   Biso      1.000     C          -0.17711400000000002          
         C2        1.0000    0.08880   0.45490   0.54510   Biso      1.000     C          0.25473   
         C3        1.0000    0.16970   0.54430   0.45570   Biso      1.000     C          -0.074823           
         C4        1.0000    0.08880   0.54510   0.45490   Biso      1.000     C          -0.12490799999999999          
         C5        1.0000    0.83030   0.45570   0.45570   Biso      1.000     C          -0.0885   
         C6        1.0000    0.91120   0.45490   0.45490   Biso      1.000     C          -0.115691           
         C7        1.0000    0.54430   0.83030   0.54430   Biso      1.000     C          -0.170847           
         C8        1.0000    0.54510   0.91120   0.54510   Biso      1.000     C          0.262683  
         C9        1.0000    0.54430   0.16970   0.45570   Biso      1.000     C          -0.084315           
         C10       1.0000    0.54510   0.08880   0.45490   Biso      1.000     C          -0.114389           
         C11       1.0000    0.45570   0.16970   0.54430   Biso      1.000     C          -0.199797           
         C12       1.0000    0.45490   0.08880   0.54510   Biso      1.000     C          0.23345500000000002           
         C13       1.0000    0.45570   0.83030   0.45570   Biso      1.000     C          -0.080526           
         C14       1.0000    0.45490   0.91120   0.45490   Biso      1.000     C          -0.120075           
         C15       1.0000    0.54430   0.54430   0.83030   Biso      1.000     C          -0.09338099999999999          
         C16       1.0000    0.54510   0.54510   0.91120   Biso      1.000     C          -0.119296           
         C17       1.0000    0.45570   0.54430   0.16970   Biso      1.000     C          -0.198171           
         C18       1.0000    0.45490   0.54510   0.08880   Biso      1.000     C          0.232114  
         C19       1.0000    0.54430   0.45570   0.16970   Biso      1.000     C          -0.084974           
         C20       1.0000    0.54510   0.45490   0.08880   Biso      1.000     C          -0.11392100000000001          
         C21       1.0000    0.16970   0.45570   0.54430   Biso      1.000     C          -0.172596           
         C22       1.0000    0.91120   0.54510   0.54510   Biso      1.000     C          0.24406   
         C23       1.0000    0.83030   0.54430   0.54430   Biso      1.000     C          -0.206423           
         C24       1.0000    0.78970   0.50000   0.50000   Biso      1.000     C          -0.010343000000000001         
         C25       1.0000    0.50000   0.50000   0.04130   Biso      1.000     C          0.001684  
         C26       1.0000    0.50000   0.50000   0.21030   Biso      1.000     C          -0.004618           
         C27       1.0000    0.50000   0.50000   0.28850   Biso      1.000     C          0.641135  
         C28       1.0000    0.50000   0.50000   0.95870   Biso      1.000     C          -0.005566           
         C29       1.0000    0.50000   0.50000   0.78970   Biso      1.000     C          -0.016569999999999998         
         C30       1.0000    0.71150   0.50000   0.50000   Biso      1.000     C          0.643844  
         C31       1.0000    0.50000   0.04130   0.50000   Biso      1.000     C          0.018466999999999997          
         C32       1.0000    0.50000   0.21030   0.50000   Biso      1.000     C          -0.009411           
         C33       1.0000    0.50000   0.50000   0.71150   Biso      1.000     C          0.644181  
         C34       1.0000    0.50000   0.95870   0.50000   Biso      1.000     C          0.013399000000000001          
         C35       1.0000    0.50000   0.78970   0.50000   Biso      1.000     C          -0.019540000000000002         
         C36       1.0000    0.50000   0.71150   0.50000   Biso      1.000     C          0.643682  
         C37       1.0000    0.04130   0.50000   0.50000   Biso      1.000     C          0.030011000000000003          
         C38       1.0000    0.21030   0.50000   0.50000   Biso      1.000     C          -0.019987           
         C39       1.0000    0.28850   0.50000   0.50000   Biso      1.000     C          0.643682  
         C40       1.0000    0.95870   0.50000   0.50000   Biso      1.000     C          0.02823   
         C41       1.0000    0.50000   0.28850   0.50000   Biso      1.000     C          0.64263   
         C42       1.0000    0.45490   0.45490   0.91120   Biso      1.000     C          0.279499  
         H1        1.0000    0.05632   0.58620   0.41380   Biso      1.000     H          0.076349  
         H2        1.0000    0.94368   0.41380   0.41380   Biso      1.000     H          0.083827  
         H3        1.0000    0.58620   0.05632   0.41380   Biso      1.000     H          0.08558500000000001           
         H4        1.0000    0.41380   0.94368   0.41380   Biso      1.000     H          0.076399  
         H5        1.0000    0.58620   0.41380   0.05632   Biso      1.000     H          0.089375  
         H6        1.0000    0.39911   0.44022   0.01506   Biso      1.000     H          0.334404  
         H7        1.0000    0.58620   0.58620   0.94368   Biso      1.000     H          0.073259  
         H8        1.0000    0.79621   0.58474   0.58474   Biso      1.000     H          0.094966  
         H9        1.0000    0.92277   0.62871   0.62871   Biso      1.000     H          0.324561  
         H10       1.0000    0.20379   0.41526   0.58474   Biso      1.000     H          0.106083  
         H11       1.0000    0.02813   0.44024   0.64619   Biso      1.000     H          0.334594  
         H12       1.0000    0.79621   0.41526   0.41526   Biso      1.000     H          0.089306  
         H13       1.0000    0.58474   0.79621   0.58474   Biso      1.000     H          0.107563  
         H14       1.0000    0.55268   0.99642   0.62753   Biso      1.000     H          0.33315300000000003           
         H15       1.0000    0.20379   0.58474   0.41526   Biso      1.000     H          0.087476  
         H16       1.0000    0.41526   0.20379   0.58474   Biso      1.000     H          0.099994  
         H17       1.0000    0.39494   0.07132   0.64617   Biso      1.000     H          0.3256    
         H18       1.0000    0.41526   0.79621   0.41526   Biso      1.000     H          0.086427  
         H19       1.0000    0.58474   0.58474   0.79621   Biso      1.000     H          0.085951  
         H20       1.0000    0.41526   0.58474   0.20379   Biso      1.000     H          0.101504  
         H21       1.0000    0.39494   0.64617   0.07132   Biso      1.000     H          0.333113  
         H22       1.0000    0.58474   0.41526   0.20379   Biso      1.000     H          0.09438200000000001           
         H23       1.0000    0.58474   0.20379   0.41526   Biso      1.000     H          0.09149700000000001           
         H24       1.0000    0.41526   0.41526   0.79621   Biso      1.000     H          0.10803900000000001           
         O1        1.0000    0.45380   0.45380   0.67520   Biso      1.000     O          -0.566952           
         O2        1.0000    0.54620   0.45380   0.32480   Biso      1.000     O          -0.559469           
         O3        1.0000    0.40930   0.59070   0.04100   Biso      1.000     O          -0.43531800000000004          
         O4        1.0000    0.40930   0.40930   0.95900   Biso      1.000     O          -0.470454           
         O5        1.0000    0.54620   0.54620   0.67520   Biso      1.000     O          -0.565554           
         O6        1.0000    0.54620   0.67520   0.54620   Biso      1.000     O          -0.5649609999999999           
         O7        1.0000    0.45380   0.54620   0.32480   Biso      1.000     O          -0.5614   
         O8        1.0000    0.40930   0.04100   0.59070   Biso      1.000     O          -0.435533           
         O9        1.0000    0.32480   0.54620   0.45380   Biso      1.000     O          -0.5671619999999999           
         O10       1.0000    0.45380   0.32480   0.54620   Biso      1.000     O          -0.5632   
         O11       1.0000    0.59070   0.95900   0.59070   Biso      1.000     O          -0.476037           
         O12       1.0000    0.45380   0.67520   0.45380   Biso      1.000     O          -0.567393           
         O13       1.0000    0.67520   0.54620   0.54620   Biso      1.000     O          -0.5646220000000001           
         O14       1.0000    0.32480   0.45380   0.54620   Biso      1.000     O          -0.5647310000000001           
         O15       1.0000    0.04100   0.40930   0.59070   Biso      1.000     O          -0.475775           
         O16       1.0000    0.95900   0.59070   0.59070   Biso      1.000     O          -0.435384           
         O17       1.0000    0.67520   0.45380   0.45380   Biso      1.000     O          -0.565195           
         O18       1.0000    0.50000   0.50000   0.50000   Biso      1.000     O          -1.035409           
         O19       1.0000    0.54620   0.32480   0.45380   Biso      1.000     O          -0.56314  
         Zn1       1.0000    0.56533   0.56533   0.56533   Biso      1.000     Zn          0.970176  
         Zn2       1.0000    0.43467   0.43467   0.56533   Biso      1.000     Zn          0.9705379999999999  
         Zn3       1.0000    0.43467   0.56533   0.43467   Biso      1.000     Zn          0.970735  
         Zn4       1.0000    0.56533   0.43467   0.43467   Biso      1.000     Zn          0.9711299999999999 