
##########################################################################
#               Crystallographic Information Format file
#               Produced by PyCifRW module
#
#  This is a CIF file.  CIF has been adopted by the International
#  Union of Crystallography as the standard for data archiving and
#  transmission.
#
#  For information on this file format, follow the CIF links at
#  http://www.iucr.org
##########################################################################

data_image0

_cell_length_a                          12.7551
_cell_length_b                          13.617
_cell_length_c                          14.137
_cell_angle_alpha                       66.28
_cell_angle_beta                        67.14
_cell_angle_gamma                       77.149
_symmetry_space_group_name_H-M          'P 1'
_symmetry_int_tables_number             1
loop_
  _symmetry_equiv_pos_as_xyz
         'x, y, z' 
loop_
  _atom_site_label
  _atom_site_occupancy
  _atom_site_fract_x
  _atom_site_fract_y
  _atom_site_fract_z
  _atom_site_thermal_displace_type
  _atom_site_B_iso_or_equiv
  _atom_site_type_symbol
  _atom_site_charge
         C1        1.0000    0.12220   0.04320   0.58190   Biso      1.000     C          -0.099941           
         C2        1.0000    0.56100   0.71870   0.85680   Biso      1.000     C          0.686523  
         C3        1.0000    0.43550   0.13210   0.82330   Biso      1.000     C          0.671419  
         C4        1.0000    0.30150   0.15820   0.72350   Biso      1.000     C          -0.118336           
         C5        1.0000    0.36930   0.20280   0.74980   Biso      1.000     C          -0.074022           
         C6        1.0000    0.37140   0.31320   0.70940   Biso      1.000     C          0.062689  
         C7        1.0000    0.24690   0.33510   0.62000   Biso      1.000     C          0.020494  
         C8        1.0000    0.23950   0.22510   0.65580   Biso      1.000     C          0.040029  
         C9        1.0000    0.16200   0.17720   0.63220   Biso      1.000     C          0.060154  
         C10       1.0000    0.04590   0.20730   0.66600   Biso      1.000     C          -0.143328           
         C11       1.0000    0.96930   0.15760   0.65700   Biso      1.000     C          -0.059273           
         C12       1.0000    0.00600   0.07650   0.61540   Biso      1.000     C          -0.092037           
         C13       1.0000    0.62860   0.68680   0.29060   Biso      1.000     C          0.062688  
         C14       1.0000    0.20060   0.09390   0.58840   Biso      1.000     C          -0.096076           
         C15       1.0000    0.62510   0.61760   0.90910   Biso      1.000     C          -0.067827           
         C16       1.0000    0.32570   0.06490   0.53580   Biso      1.000     C          0.688383  
         C17       1.0000    0.06290   0.86940   0.86310   Biso      1.000     C          -0.116569           
         C18       1.0000    0.11380   0.86740   0.93490   Biso      1.000     C          -0.083166           
         C19       1.0000    0.04340   0.86950   0.03700   Biso      1.000     C          0.051619  
         C20       1.0000    0.88390   0.86960   0.00100   Biso      1.000     C          0.028743  
         C21       1.0000    0.94590   0.86920   0.89590   Biso      1.000     C          0.038468  
         C22       1.0000    0.89210   0.85920   0.82430   Biso      1.000     C          0.041809  
         C23       1.0000    0.95310   0.79510   0.76080   Biso      1.000     C          -0.143873           
         C24       1.0000    0.91030   0.77880   0.69250   Biso      1.000     C          -0.076939           
         C25       1.0000    0.80540   0.82540   0.68650   Biso      1.000     C          -0.086857           
         C26       1.0000    0.74250   0.88930   0.74880   Biso      1.000     C          -0.106066           
         C27       1.0000    0.78400   0.90520   0.81790   Biso      1.000     C          -0.067549           
         C28       1.0000    0.70870   0.97840   0.87690   Biso      1.000     C          0.642592  
         C29       1.0000    0.28450   0.65630   0.74970   Biso      1.000     C          0.592227  
         C30       1.0000    0.24080   0.86260   0.90250   Biso      1.000     C          0.698878  
         C31       1.0000    0.20470   0.57050   0.80330   Biso      1.000     C          -0.067694           
         C32       1.0000    0.63000   0.52620   0.88800   Biso      1.000     C          0.047084  
         C33       1.0000    0.73680   0.51770   0.02550   Biso      1.000     C          0.056328  
         C34       1.0000    0.83800   0.82280   0.36780   Biso      1.000     C          0.060153  
         C35       1.0000    0.95410   0.79270   0.33400   Biso      1.000     C          -0.143328           
         C36       1.0000    0.03070   0.84240   0.34300   Biso      1.000     C          -0.059273           
         C37       1.0000    0.99400   0.92350   0.38460   Biso      1.000     C          -0.092037           
         C38       1.0000    0.87780   0.95680   0.41810   Biso      1.000     C          -0.099941           
         C39       1.0000    0.79940   0.90610   0.41160   Biso      1.000     C          -0.096076           
         C40       1.0000    0.67430   0.93510   0.46420   Biso      1.000     C          0.688383  
         C41       1.0000    0.75920   0.13740   0.09750   Biso      1.000     C          0.698877  
         C42       1.0000    0.93710   0.13060   0.13690   Biso      1.000     C          -0.116569           
         C43       1.0000    0.88620   0.13260   0.06510   Biso      1.000     C          -0.083165           
         C44       1.0000    0.95660   0.13050   0.96300   Biso      1.000     C          0.051619  
         C45       1.0000    0.11610   0.13040   0.99900   Biso      1.000     C          0.028743  
         C46       1.0000    0.05410   0.13080   0.10410   Biso      1.000     C          0.038467  
         C47       1.0000    0.73780   0.43090   0.99750   Biso      1.000     C          0.035246  
         C48       1.0000    0.10790   0.14080   0.17570   Biso      1.000     C          0.041809  
         C49       1.0000    0.08970   0.22120   0.30750   Biso      1.000     C          -0.076939           
         C50       1.0000    0.19460   0.17460   0.31350   Biso      1.000     C          -0.086857           
         C51       1.0000    0.25750   0.11070   0.25120   Biso      1.000     C          -0.106066           
         C52       1.0000    0.21600   0.09480   0.18210   Biso      1.000     C          -0.067549           
         C53       1.0000    0.29130   0.02160   0.12310   Biso      1.000     C          0.642592  
         C54       1.0000    0.71550   0.34370   0.25030   Biso      1.000     C          0.592227  
         C55       1.0000    0.79530   0.42950   0.19670   Biso      1.000     C          -0.067694           
         C56       1.0000    0.86410   0.42970   0.25290   Biso      1.000     C          -0.092809           
         C57       1.0000    0.93850   0.51020   0.21020   Biso      1.000     C          -0.092659           
         C58       1.0000    0.94410   0.58900   0.11150   Biso      1.000     C          -0.064545           
         C59       1.0000    0.87730   0.59020   0.05460   Biso      1.000     C          -0.145658           
         C60       1.0000    0.80190   0.51160   0.09560   Biso      1.000     C          0.058736  
         C61       1.0000    0.67810   0.61290   0.98000   Biso      1.000     C          -0.116633           
         C62       1.0000    0.04690   0.20490   0.23920   Biso      1.000     C          -0.143873           
         C63       1.0000    0.13590   0.57030   0.74710   Biso      1.000     C          -0.092809           
         C64       1.0000    0.06150   0.48980   0.78980   Biso      1.000     C          -0.092659           
         C65       1.0000    0.05590   0.41100   0.88850   Biso      1.000     C          -0.064545           
         C66       1.0000    0.56450   0.86790   0.17670   Biso      1.000     C          0.671419  
         C67       1.0000    0.69850   0.84180   0.27650   Biso      1.000     C          -0.118336           
         C68       1.0000    0.63070   0.79720   0.25020   Biso      1.000     C          -0.074021           
         C69       1.0000    0.76050   0.77490   0.34420   Biso      1.000     C          0.040029  
         C70       1.0000    0.43900   0.28130   0.14320   Biso      1.000     C          0.686524  
         C71       1.0000    0.37490   0.38240   0.09090   Biso      1.000     C          -0.067827           
         C72       1.0000    0.75310   0.66490   0.38000   Biso      1.000     C          0.020496  
         C73       1.0000    0.26220   0.56910   0.00250   Biso      1.000     C          0.035245  
         C74       1.0000    0.26320   0.48230   0.97450   Biso      1.000     C          0.056329  
         C75       1.0000    0.32190   0.38710   0.02000   Biso      1.000     C          -0.116633           
         C76       1.0000    0.37000   0.47380   0.11200   Biso      1.000     C          0.047084  
         C77       1.0000    0.12270   0.40980   0.94540   Biso      1.000     C          -0.145658           
         C78       1.0000    0.19810   0.48840   0.90440   Biso      1.000     C          0.058736  
         H1        1.0000    0.65160   0.32400   0.89390   Biso      1.000     H          0.489665  
         H2        1.0000    0.89190   0.17940   0.67950   Biso      1.000     H          0.118959  
         H3        1.0000    0.95370   0.04350   0.60920   Biso      1.000     H          0.106418  
         H4        1.0000    0.14690   0.98680   0.55530   Biso      1.000     H          0.120814  
         H5        1.0000    0.10790   0.87080   0.79280   Biso      1.000     H          0.1253    
         H6        1.0000    0.07700   0.87050   0.08440   Biso      1.000     H          0.100046  
         H7        1.0000    0.80500   0.86940   0.02400   Biso      1.000     H          0.086171  
         H8        1.0000    0.02430   0.76260   0.76450   Biso      1.000     H          0.111276  
         H9        1.0000    0.95280   0.73620   0.65080   Biso      1.000     H          0.110229  
         H10       1.0000    0.77630   0.81450   0.64090   Biso      1.000     H          0.107133  
         H11       1.0000    0.67150   0.92170   0.74380   Biso      1.000     H          0.121843  
         H12       1.0000    0.01960   0.26200   0.69510   Biso      1.000     H          0.117827  
         H13       1.0000    0.00630   0.35730   0.91780   Biso      1.000     H          0.09939   
         H14       1.0000    0.11740   0.35530   0.01270   Biso      1.000     H          0.106032  
         H15       1.0000    0.32560   0.32690   0.00300   Biso      1.000     H          0.121773  
         H16       1.0000    0.22210   0.63300   0.97350   Biso      1.000     H          0.087332  
         H17       1.0000    0.40640   0.47060   0.15890   Biso      1.000     H          0.108993  
         H18       1.0000    0.47840   0.22070   0.47240   Biso      1.000     H          0.391596  
         H19       1.0000    0.58840   0.25810   0.42320   Biso      1.000     H          0.380689  
         H20       1.0000    0.58720   0.25500   0.86100   Biso      1.000     H          0.447953  
         H21       1.0000    0.13960   0.62470   0.68000   Biso      1.000     H          0.118101  
         H22       1.0000    0.01650   0.49000   0.75140   Biso      1.000     H          0.112414  
         H23       1.0000    0.41600   0.34300   0.72820   Biso      1.000     H          0.101327  
         H24       1.0000    0.29740   0.08410   0.75090   Biso      1.000     H          0.119366  
         H25       1.0000    0.70260   0.91590   0.24910   Biso      1.000     H          0.119366  
         H26       1.0000    0.58400   0.65700   0.27180   Biso      1.000     H          0.101327  
         H27       1.0000    0.79600   0.61940   0.42340   Biso      1.000     H          0.094883  
         H28       1.0000    0.98040   0.73800   0.30490   Biso      1.000     H          0.117827  
         H29       1.0000    0.10810   0.82060   0.32050   Biso      1.000     H          0.118959  
         H30       1.0000    0.04630   0.95650   0.39080   Biso      1.000     H          0.106418  
         H31       1.0000    0.85310   0.01320   0.44470   Biso      1.000     H          0.120813  
         H32       1.0000    0.89210   0.12920   0.20720   Biso      1.000     H          0.1253    
         H33       1.0000    0.92300   0.12950   0.91560   Biso      1.000     H          0.100046  
         H34       1.0000    0.19500   0.13060   0.97600   Biso      1.000     H          0.086171  
         H35       1.0000    0.97570   0.23740   0.23550   Biso      1.000     H          0.111276  
         H36       1.0000    0.20400   0.38060   0.57660   Biso      1.000     H          0.094884  
         H37       1.0000    0.04720   0.26380   0.34920   Biso      1.000     H          0.110229  
         H38       1.0000    0.32850   0.07830   0.25620   Biso      1.000     H          0.121843  
         H39       1.0000    0.86040   0.37530   0.32000   Biso      1.000     H          0.118101  
         H40       1.0000    0.98350   0.51000   0.24860   Biso      1.000     H          0.112414  
         H41       1.0000    0.99370   0.64270   0.08220   Biso      1.000     H          0.09939   
         H42       1.0000    0.88260   0.64470   0.98730   Biso      1.000     H          0.106032  
         H43       1.0000    0.67440   0.67310   0.99700   Biso      1.000     H          0.121773  
         H44       1.0000    0.77790   0.36700   0.02650   Biso      1.000     H          0.087332  
         H45       1.0000    0.59360   0.52940   0.84110   Biso      1.000     H          0.108993  
         H46       1.0000    0.52160   0.77930   0.52760   Biso      1.000     H          0.391596  
         H47       1.0000    0.41280   0.74500   0.13900   Biso      1.000     H          0.447953  
         H48       1.0000    0.34840   0.67600   0.10610   Biso      1.000     H          0.489665  
         H49       1.0000    0.22370   0.18550   0.35910   Biso      1.000     H          0.107133  
         H50       1.0000    0.41160   0.74190   0.57680   Biso      1.000     H          0.380689  
         Ho1       1.0000    0.57112   0.11820   0.98874   Biso      1.000     Ho          2.081395  
         Ho2       1.0000    0.43199   0.82080   0.66514   Biso      1.000     Ho          2.013357  
         Ho3       1.0000    0.42888   0.88180   0.01126   Biso      1.000     Ho          2.081395  
         Ho4       1.0000    0.56801   0.17920   0.33486   Biso      1.000     Ho          2.013357  
         N1        1.0000    0.31550   0.56700   0.06850   Biso      1.000     N          -0.234862           
         N2        1.0000    0.92930   0.87020   0.07200   Biso      1.000     N          -0.23928  
         N3        1.0000    0.31210   0.37970   0.64430   Biso      1.000     N          -0.242615           
         N4        1.0000    0.68450   0.43300   0.93150   Biso      1.000     N          -0.234863           
         N5        1.0000    0.07070   0.12980   0.92800   Biso      1.000     N          -0.23928  
         N6        1.0000    0.68790   0.62030   0.35570   Biso      1.000     N          -0.242615           
         O1        1.0000    0.54740   0.72930   0.77060   Biso      1.000     O          -0.660283           
         O2        1.0000    0.62090   0.36120   0.23470   Biso      1.000     O          -0.629528           
         O3        1.0000    0.74140   0.25200   0.31300   Biso      1.000     O          -0.628769           
         O4        1.0000    0.39230   0.04530   0.06170   Biso      1.000     O          -0.772318           
         O5        1.0000    0.25710   0.93790   0.13390   Biso      1.000     O          -0.605014           
         O6        1.0000    0.57020   0.96860   0.14640   Biso      1.000     O          -0.667001           
         O7        1.0000    0.71990   0.14140   0.02780   Biso      1.000     O          -0.65414  
         O8        1.0000    0.61150   0.85950   0.52410   Biso      1.000     O          -0.681021           
         O9        1.0000    0.64280   0.03350   0.44960   Biso      1.000     O          -0.712827           
         O10       1.0000    0.52570   0.78720   0.90320   Biso      1.000     O          -0.719341           
         O11       1.0000    0.50790   0.82440   0.15080   Biso      1.000     O          -0.674739           
         O12       1.0000    0.69930   0.14000   0.19100   Biso      1.000     O          -0.716038           
         O13       1.0000    0.52270   0.26020   0.47070   Biso      1.000     O          -0.786595           
         O14       1.0000    0.35720   0.96650   0.55040   Biso      1.000     O          -0.712827           
         O15       1.0000    0.49210   0.17560   0.84920   Biso      1.000     O          -0.674739           
         O16       1.0000    0.42980   0.03140   0.85360   Biso      1.000     O          -0.667001           
         O17       1.0000    0.36980   0.70950   0.13350   Biso      1.000     O          -0.985471           
         O18       1.0000    0.38850   0.14050   0.47590   Biso      1.000     O          -0.681021           
         O19       1.0000    0.28010   0.85860   0.97220   Biso      1.000     O          -0.65414  
         O20       1.0000    0.30070   0.86000   0.80900   Biso      1.000     O          -0.716039           
         O21       1.0000    0.74290   0.06210   0.86610   Biso      1.000     O          -0.605014           
         O22       1.0000    0.60770   0.95470   0.93830   Biso      1.000     O          -0.772318           
         O23       1.0000    0.25860   0.74800   0.68700   Biso      1.000     O          -0.628769           
         O24       1.0000    0.37910   0.63880   0.76530   Biso      1.000     O          -0.629529           
         O25       1.0000    0.45260   0.27070   0.22940   Biso      1.000     O          -0.660283           
         O26       1.0000    0.47430   0.21280   0.09680   Biso      1.000     O          -0.719341           
         O27       1.0000    0.63020   0.29050   0.86650   Biso      1.000     O          -0.985471           
         O28       1.0000    0.47730   0.73980   0.52930   Biso      1.000     O          -0.786595 