
##########################################################################
#               Crystallographic Information Format file
#               Produced by PyCifRW module
#
#  This is a CIF file.  CIF has been adopted by the International
#  Union of Crystallography as the standard for data archiving and
#  transmission.
#
#  For information on this file format, follow the CIF links at
#  http://www.iucr.org
##########################################################################

data_image0

_cell_length_a                          12.825
_cell_length_b                          13.672
_cell_length_c                          14.227
_cell_angle_alpha                       66.182
_cell_angle_beta                        66.8
_cell_angle_gamma                       77.064
_symmetry_space_group_name_H-M          'P 1'
_symmetry_int_tables_number             1
loop_
  _symmetry_equiv_pos_as_xyz
         'x, y, z' 
loop_
  _atom_site_label
  _atom_site_occupancy
  _atom_site_fract_x
  _atom_site_fract_y
  _atom_site_fract_z
  _atom_site_thermal_displace_type
  _atom_site_B_iso_or_equiv
  _atom_site_type_symbol
  _atom_site_charge
         C1        1.0000    0.00680   0.57520   0.11630   Biso      1.000     C          -0.091651           
         C2        1.0000    0.63090   0.02490   0.38850   Biso      1.000     C          0.046021  
         C3        1.0000    0.73890   0.93080   0.49770   Biso      1.000     C          0.036731  
         C4        1.0000    0.73750   0.01700   0.52510   Biso      1.000     C          0.056469000000000005          
         C5        1.0000    0.67840   0.11310   0.47870   Biso      1.000     C          -0.12781800000000001          
         C6        1.0000    0.62530   0.11710   0.40900   Biso      1.000     C          -0.072266           
         C7        1.0000    0.56110   0.21740   0.35730   Biso      1.000     C          0.691627  
         C8        1.0000    0.12130   0.54350   0.08350   Biso      1.000     C          -0.099024           
         C9        1.0000    0.96870   0.65800   0.15710   Biso      1.000     C          -0.061230999999999994         
         C10       1.0000    0.04600   0.70730   0.16640   Biso      1.000     C          -0.147033           
         C11       1.0000    0.16190   0.67730   0.13300   Biso      1.000     C          0.063059  
         C12       1.0000    0.23950   0.72490   0.15570   Biso      1.000     C          0.041386  
         C13       1.0000    0.24720   0.83430   0.12090   Biso      1.000     C          0.016316  
         C14       1.0000    0.37230   0.81290   0.20930   Biso      1.000     C          0.053198  
         C15       1.0000    0.36960   0.70240   0.24990   Biso      1.000     C          -0.067374           
         C16       1.0000    0.30210   0.65820   0.22310   Biso      1.000     C          -0.11349100000000001          
         C17       1.0000    0.80210   0.01130   0.59510   Biso      1.000     C          0.055605999999999996          
         C18       1.0000    0.87720   0.09070   0.55400   Biso      1.000     C          -0.145958           
         C19       1.0000    0.94390   0.08920   0.61040   Biso      1.000     C          -0.071108           
         C20       1.0000    0.93760   0.00940   0.71060   Biso      1.000     C          -0.09043999999999999          
         C21       1.0000    0.76030   0.63800   0.59620   Biso      1.000     C          0.705551  
         C22       1.0000    0.11610   0.63200   0.49850   Biso      1.000     C          0.028696  
         C23       1.0000    0.95830   0.63020   0.46240   Biso      1.000     C          0.054480999999999995          
         C24       1.0000    0.88650   0.63200   0.56530   Biso      1.000     C          -0.085191           
         C25       1.0000    0.93670   0.63020   0.63750   Biso      1.000     C          -0.108271           
         C26       1.0000    0.05490   0.63120   0.60390   Biso      1.000     C          0.035265  
         C27       1.0000    0.25700   0.61250   0.75140   Biso      1.000     C          -0.107545           
         C28       1.0000    0.43650   0.63230   0.32120   Biso      1.000     C          0.671337  
         C29       1.0000    0.19480   0.67580   0.81390   Biso      1.000     C          -0.083412           
         C30       1.0000    0.04700   0.70430   0.74050   Biso      1.000     C          -0.140119           
         C31       1.0000    0.10710   0.64060   0.67670   Biso      1.000     C          0.043384  
         C32       1.0000    0.21550   0.59600   0.68200   Biso      1.000     C          -0.06814400000000001          
         C33       1.0000    0.29030   0.52240   0.62280   Biso      1.000     C          0.647354  
         C34       1.0000    0.71460   0.84430   0.75050   Biso      1.000     C          0.579329  
         C35       1.0000    0.79590   0.93080   0.69590   Biso      1.000     C          -0.06976  
         C36       1.0000    0.86440   0.93120   0.75190   Biso      1.000     C          -0.099367           
         C37       1.0000    0.08910   0.72130   0.80830   Biso      1.000     C          -0.078437           
         C38       1.0000    0.43890   0.78260   0.64270   Biso      1.000     C          0.691628  
         C39       1.0000    0.37470   0.88290   0.59100   Biso      1.000     C          -0.072269           
         C40       1.0000    0.32160   0.88690   0.52130   Biso      1.000     C          -0.127816           
         C41       1.0000    0.04170   0.36980   0.53760   Biso      1.000     C          0.054480999999999995          
         C42       1.0000    0.88390   0.36800   0.50150   Biso      1.000     C          0.028696  
         C43       1.0000    0.23970   0.36200   0.40380   Biso      1.000     C          0.705551  
         C44       1.0000    0.67540   0.43490   0.96290   Biso      1.000     C          0.684938  
         C45       1.0000    0.79930   0.40570   0.91060   Biso      1.000     C          -0.097773           
         C46       1.0000    0.87870   0.45650   0.91650   Biso      1.000     C          -0.099027           
         C47       1.0000    0.99320   0.42480   0.88370   Biso      1.000     C          -0.09164800000000001          
         C48       1.0000    0.11350   0.36800   0.43470   Biso      1.000     C          -0.08519  
         C49       1.0000    0.03130   0.34200   0.84290   Biso      1.000     C          -0.061232           
         C50       1.0000    0.83810   0.32270   0.86700   Biso      1.000     C          0.063058  
         C51       1.0000    0.76050   0.27510   0.84430   Biso      1.000     C          0.041386  
         C52       1.0000    0.75280   0.16570   0.87910   Biso      1.000     C          0.016316  
         C53       1.0000    0.62770   0.18710   0.79070   Biso      1.000     C          0.053198  
         C54       1.0000    0.63040   0.29760   0.75010   Biso      1.000     C          -0.067374           
         C55       1.0000    0.69790   0.34180   0.77690   Biso      1.000     C          -0.11349100000000001          
         C56       1.0000    0.56350   0.36770   0.67880   Biso      1.000     C          0.671337  
         C57       1.0000    0.95400   0.29270   0.83360   Biso      1.000     C          -0.147032           
         C58       1.0000    0.32460   0.56510   0.03710   Biso      1.000     C          0.684938  
         C59       1.0000    0.06330   0.36980   0.36250   Biso      1.000     C          -0.108271           
         C60       1.0000    0.74300   0.38750   0.24860   Biso      1.000     C          -0.107545           
         C61       1.0000    0.26250   0.98300   0.47490   Biso      1.000     C          0.056465999999999995          
         C62       1.0000    0.26110   0.06920   0.50230   Biso      1.000     C          0.036735000000000004          
         C63       1.0000    0.36910   0.97510   0.61150   Biso      1.000     C          0.046023  
         C64       1.0000    0.19790   0.98870   0.40490   Biso      1.000     C          0.055605999999999996          
         C65       1.0000    0.12280   0.90930   0.44600   Biso      1.000     C          -0.145958           
         C66       1.0000    0.05610   0.91080   0.38960   Biso      1.000     C          -0.071108           
         C67       1.0000    0.06240   0.99060   0.28940   Biso      1.000     C          -0.09043999999999999          
         C68       1.0000    0.94510   0.36880   0.39610   Biso      1.000     C          0.035265  
         C69       1.0000    0.13560   0.06880   0.24810   Biso      1.000     C          -0.099367           
         C70       1.0000    0.28540   0.15570   0.24950   Biso      1.000     C          0.579329  
         C71       1.0000    0.70970   0.47760   0.37720   Biso      1.000     C          0.647354  
         C72       1.0000    0.78450   0.40400   0.31800   Biso      1.000     C          -0.06814400000000001          
         C73       1.0000    0.89290   0.35940   0.32330   Biso      1.000     C          0.043384  
         C74       1.0000    0.95300   0.29570   0.25950   Biso      1.000     C          -0.140119           
         C75       1.0000    0.91090   0.27870   0.19170   Biso      1.000     C          -0.078439           
         C76       1.0000    0.80520   0.32420   0.18610   Biso      1.000     C          -0.08341  
         C77       1.0000    0.20410   0.06920   0.30410   Biso      1.000     C          -0.06976  
         C78       1.0000    0.20070   0.59430   0.08940   Biso      1.000     C          -0.097773           
         Dy1       1.0000    0.42861   0.38149   0.51149   Biso      1.000     Dy          2.1400240000000004  
         Dy2       1.0000    0.43190   0.32041   0.16495   Biso      1.000     Dy          2.050204  
         Dy3       1.0000    0.57139   0.61851   0.48851   Biso      1.000     Dy          2.1400240000000004  
         Dy4       1.0000    0.56810   0.67959   0.83505   Biso      1.000     Dy          2.050204  
         H1        1.0000    0.88210   0.14550   0.48740   Biso      1.000     H          0.105582  
         H2        1.0000    0.89170   0.68050   0.17820   Biso      1.000     H          0.117129  
         H3        1.0000    0.95530   0.54100   0.11110   Biso      1.000     H          0.10971700000000001           
         H4        1.0000    0.14630   0.48730   0.05690   Biso      1.000     H          0.123624  
         H5        1.0000    0.19450   0.63430   0.47430   Biso      1.000     H          0.08677   
         H6        1.0000    0.92570   0.62940   0.41480   Biso      1.000     H          0.100483  
         H7        1.0000    0.89150   0.62850   0.70780   Biso      1.000     H          0.126922  
         H8        1.0000    0.22400   0.68730   0.85860   Biso      1.000     H          0.11099300000000001           
         H9        1.0000    0.04600   0.76340   0.85010   Biso      1.000     H          0.112125  
         H10       1.0000    0.97580   0.73650   0.73730   Biso      1.000     H          0.11346500000000001           
         H11       1.0000    0.98220   0.00900   0.74890   Biso      1.000     H          0.109948  
         H12       1.0000    0.01960   0.76160   0.19560   Biso      1.000     H          0.118453  
         H13       1.0000    0.99380   0.14240   0.58090   Biso      1.000     H          0.09852899999999999           
         H14       1.0000    0.70150   0.41570   0.75010   Biso      1.000     H          0.11998699999999998           
         H15       1.0000    0.59500   0.02760   0.34200   Biso      1.000     H          0.10697999999999999           
         H16       1.0000    0.77940   0.86750   0.52620   Biso      1.000     H          0.08730700000000001           
         H17       1.0000    0.67500   0.17350   0.49470   Biso      1.000     H          0.121029  
         H18       1.0000    0.44850   0.19160   0.04490   Biso      1.000     H          0.604297  
         H19       1.0000    0.52010   0.27910   0.02680   Biso      1.000     H          0.472815  
         H20       1.0000    0.86000   0.87700   0.81890   Biso      1.000     H          0.11333399999999999           
         H21       1.0000    0.20480   0.87990   0.07760   Biso      1.000     H          0.094886  
         H22       1.0000    0.32770   0.58030   0.75590   Biso      1.000     H          0.12083499999999998           
         H23       1.0000    0.29850   0.58430   0.24990   Biso      1.000     H          0.11998699999999998           
         H24       1.0000    0.58250   0.15740   0.77320   Biso      1.000     H          0.10273299999999999           
         H25       1.0000    0.79520   0.12010   0.92240   Biso      1.000     H          0.094886  
         H26       1.0000    0.98040   0.23840   0.80440   Biso      1.000     H          0.118453  
         H27       1.0000    0.41750   0.84260   0.22680   Biso      1.000     H          0.10273299999999999           
         H28       1.0000    0.04470   0.45900   0.88890   Biso      1.000     H          0.10971700000000001           
         H29       1.0000    0.85370   0.51270   0.94310   Biso      1.000     H          0.123624  
         H30       1.0000    0.80550   0.36570   0.52570   Biso      1.000     H          0.08677   
         H31       1.0000    0.07430   0.37060   0.58520   Biso      1.000     H          0.100483  
         H32       1.0000    0.10850   0.37150   0.29220   Biso      1.000     H          0.126922  
         H33       1.0000    0.67230   0.41970   0.24410   Biso      1.000     H          0.12083499999999998           
         H34       1.0000    0.77600   0.31270   0.14140   Biso      1.000     H          0.11099300000000001           
         H35       1.0000    0.10830   0.31950   0.82180   Biso      1.000     H          0.117129  
         H36       1.0000    0.02420   0.26350   0.26270   Biso      1.000     H          0.11346500000000001           
         H37       1.0000    0.14000   0.12300   0.18110   Biso      1.000     H          0.11333399999999999           
         H38       1.0000    0.01780   0.99100   0.25110   Biso      1.000     H          0.109948  
         H39       1.0000    0.00620   0.85760   0.41910   Biso      1.000     H          0.09852999999999999           
         H40       1.0000    0.11790   0.85450   0.51260   Biso      1.000     H          0.105582  
         H41       1.0000    0.40500   0.97240   0.65800   Biso      1.000     H          0.10697999999999999           
         H42       1.0000    0.22060   0.13250   0.47380   Biso      1.000     H          0.08730700000000001           
         H43       1.0000    0.32500   0.82650   0.50530   Biso      1.000     H          0.121029  
         H44       1.0000    0.55150   0.80840   0.95510   Biso      1.000     H          0.604297  
         H45       1.0000    0.47990   0.72090   0.97320   Biso      1.000     H          0.472815  
         H46       1.0000    0.95400   0.23660   0.14990   Biso      1.000     H          0.112126  
         N1        1.0000    0.68780   0.12100   0.85460   Biso      1.000     N          -0.260289           
         N2        1.0000    0.92890   0.37050   0.57140   Biso      1.000     N          -0.239418           
         N3        1.0000    0.31460   0.06770   0.56780   Biso      1.000     N          -0.275368           
         N4        1.0000    0.07110   0.62950   0.42860   Biso      1.000     N          -0.239418           
         N5        1.0000    0.68540   0.93230   0.43220   Biso      1.000     N          -0.275368           
         N6        1.0000    0.31220   0.87900   0.14540   Biso      1.000     N          -0.260289           
         O1        1.0000    0.47440   0.71380   0.59650   Biso      1.000     O          -0.7403489999999999           
         O2        1.0000    0.56890   0.46820   0.64730   Biso      1.000     O          -0.666817           
         O3        1.0000    0.61180   0.35990   0.02260   Biso      1.000     O          -0.6926399999999999           
         O4        1.0000    0.64380   0.53270   0.94950   Biso      1.000     O          -0.699765           
         O5        1.0000    0.27840   0.36010   0.47250   Biso      1.000     O          -0.678303           
         O6        1.0000    0.30040   0.35970   0.30940   Biso      1.000     O          -0.7182850000000001           
         O7        1.0000    0.60870   0.45330   0.43890   Biso      1.000     O          -0.772334           
         O8        1.0000    0.74380   0.56170   0.36500   Biso      1.000     O          -0.618812           
         O9        1.0000    0.25880   0.24670   0.18760   Biso      1.000     O          -0.632475           
         O10       1.0000    0.37890   0.13720   0.26500   Biso      1.000     O          -0.638158           
         O11       1.0000    0.45170   0.77230   0.72930   Biso      1.000     O          -0.6628850000000001           
         O12       1.0000    0.47580   0.23990   0.02890   Biso      1.000     O          -1.055328           
         O13       1.0000    0.50760   0.32370   0.65180   Biso      1.000     O          -0.702283           
         O14       1.0000    0.43110   0.53180   0.35270   Biso      1.000     O          -0.666817           
         O15       1.0000    0.38820   0.64010   0.97740   Biso      1.000     O          -0.6926399999999999           
         O16       1.0000    0.35620   0.46730   0.05050   Biso      1.000     O          -0.699765           
         O17       1.0000    0.72160   0.63990   0.52750   Biso      1.000     O          -0.678303           
         O18       1.0000    0.69960   0.64030   0.69060   Biso      1.000     O          -0.7182850000000001           
         O19       1.0000    0.39130   0.54670   0.56110   Biso      1.000     O          -0.772334           
         O20       1.0000    0.25620   0.43830   0.63500   Biso      1.000     O          -0.618812           
         O21       1.0000    0.74120   0.75330   0.81240   Biso      1.000     O          -0.632475           
         O22       1.0000    0.62110   0.86280   0.73500   Biso      1.000     O          -0.638158           
         O23       1.0000    0.54830   0.22770   0.27070   Biso      1.000     O          -0.6628850000000001           
         O24       1.0000    0.52560   0.28620   0.40350   Biso      1.000     O          -0.7403489999999999           
         O25       1.0000    0.49240   0.67630   0.34820   Biso      1.000     O          -0.702283           
         O26       1.0000    0.52420   0.76010   0.97110   Biso      1.000     O          -1.055328 