
##########################################################################
#               Crystallographic Information Format file
#               Produced by PyCifRW module
#
#  This is a CIF file.  CIF has been adopted by the International
#  Union of Crystallography as the standard for data archiving and
#  transmission.
#
#  For information on this file format, follow the CIF links at
#  http://www.iucr.org
##########################################################################

data_image0

_cell_length_a                          9.7762
_cell_length_b                          9.9277
_cell_length_c                          21.4526
_cell_angle_alpha                       90
_cell_angle_beta                        93.445
_cell_angle_gamma                       90
_symmetry_space_group_name_H-M          'P 1'
_symmetry_int_tables_number             1
loop_
  _symmetry_equiv_pos_as_xyz
         'x, y, z' 
loop_
  _atom_site_label
  _atom_site_occupancy
  _atom_site_fract_x
  _atom_site_fract_y
  _atom_site_fract_z
  _atom_site_thermal_displace_type
  _atom_site_B_iso_or_equiv
  _atom_site_type_symbol
  _atom_site_charge
         C1        1.0000    0.46280   0.90860   0.34846   Biso      1.000     C          0.606967  
         C2        1.0000    0.26540   0.89800   0.85021   Biso      1.000     C          0.6051340000000001  
         C3        1.0000    0.20740   0.15010   0.88044   Biso      1.000     C          -0.010612           
         C4        1.0000    0.09850   0.15720   0.92399   Biso      1.000     C          0.5988760000000001  
         C5        1.0000    0.36470   0.23780   0.82770   Biso      1.000     C          0.17207   
         C6        1.0000    0.73460   0.26790   0.67212   Biso      1.000     C          -0.00032599999999999996       
         C7        1.0000    0.74650   0.35410   0.61632   Biso      1.000     C          0.596391  
         C8        1.0000    0.64700   0.16490   0.68696   Biso      1.000     C          -0.027387           
         C9        1.0000    0.53720   0.09140   0.65154   Biso      1.000     C          0.606969  
         C10       1.0000    0.78570   0.20260   0.76591   Biso      1.000     C          0.166581  
         C11       1.0000    0.27710   0.04650   0.85251   Biso      1.000     C          0.020761  
         C12       1.0000    0.22290   0.54650   0.64749   Biso      1.000     C          0.020758000000000002          
         C13       1.0000    0.29260   0.65010   0.61956   Biso      1.000     C          -0.010609           
         C14       1.0000    0.40150   0.65720   0.57601   Biso      1.000     C          0.5988760000000001  
         C15       1.0000    0.13530   0.73780   0.67230   Biso      1.000     C          0.17207   
         C16       1.0000    0.23460   0.23210   0.17212   Biso      1.000     C          -0.000325           
         C17       1.0000    0.24650   0.14590   0.11632   Biso      1.000     C          0.596396  
         C18       1.0000    0.14700   0.33510   0.18696   Biso      1.000     C          -0.027388           
         C19       1.0000    0.03720   0.40860   0.15154   Biso      1.000     C          0.606967  
         C20       1.0000    0.28570   0.29740   0.26591   Biso      1.000     C          0.16658299999999998           
         C21       1.0000    0.72290   0.95350   0.14749   Biso      1.000     C          0.020756999999999998          
         C22       1.0000    0.23460   0.39800   0.64979   Biso      1.000     C          0.6051350000000001  
         C23       1.0000    0.71430   0.70260   0.73409   Biso      1.000     C          0.166581  
         C24       1.0000    0.96280   0.59140   0.84846   Biso      1.000     C          0.606969  
         C25       1.0000    0.85300   0.66490   0.81304   Biso      1.000     C          -0.027389           
         C26       1.0000    0.86470   0.26220   0.32770   Biso      1.000     C          0.172069  
         C27       1.0000    0.59850   0.34280   0.42399   Biso      1.000     C          0.5988760000000001  
         C28       1.0000    0.70740   0.34990   0.38044   Biso      1.000     C          -0.010609           
         C29       1.0000    0.73460   0.10200   0.14979   Biso      1.000     C          0.6051350000000001  
         C30       1.0000    0.76540   0.60200   0.35021   Biso      1.000     C          0.6051340000000001  
         C31       1.0000    0.77710   0.45350   0.35251   Biso      1.000     C          0.02076   
         C32       1.0000    0.21430   0.79740   0.23409   Biso      1.000     C          0.16658299999999998           
         C33       1.0000    0.79260   0.84990   0.11956   Biso      1.000     C          -0.010606           
         C34       1.0000    0.25350   0.64590   0.38368   Biso      1.000     C          0.5963970000000001  
         C35       1.0000    0.26540   0.73210   0.32788   Biso      1.000     C          -0.000325           
         C36       1.0000    0.63530   0.76220   0.17230   Biso      1.000     C          0.172069  
         C37       1.0000    0.90150   0.84280   0.07601   Biso      1.000     C          0.598875  
         C38       1.0000    0.76540   0.76790   0.82788   Biso      1.000     C          -0.000321           
         C39       1.0000    0.75350   0.85410   0.88368   Biso      1.000     C          0.59639   
         C40       1.0000    0.35300   0.83510   0.31304   Biso      1.000     C          -0.027387           
         Cd1       1.0000    0.03466   0.53500   0.28438   Biso      1.000     Cd          0.849576  
         Cd2       1.0000    0.81158   0.54032   0.09373   Biso      1.000     Cd          0.935232  
         Cd3       1.0000    0.46534   0.03500   0.21562   Biso      1.000     Cd          0.849576  
         Cd4       1.0000    0.31158   0.95968   0.59373   Biso      1.000     Cd          0.935233  
         Cd5       1.0000    0.96534   0.46500   0.71562   Biso      1.000     Cd          0.849575  
         Cd6       1.0000    0.18842   0.45968   0.90627   Biso      1.000     Cd          0.935233  
         Cd7       1.0000    0.53466   0.96500   0.78438   Biso      1.000     Cd          0.849575  
         Cd8       1.0000    0.68842   0.04032   0.40627   Biso      1.000     Cd          0.935232  
         Eu1       1.0000    0.06209   0.81114   0.96777   Biso      1.000     Eu          1.398811  
         Eu2       1.0000    0.56209   0.68887   0.46777   Biso      1.000     Eu          1.398786  
         Eu3       1.0000    0.43791   0.31114   0.53223   Biso      1.000     Eu          1.398811  
         Eu4       1.0000    0.93791   0.18887   0.03223   Biso      1.000     Eu          1.398787  
         H1        1.0000    0.67090   0.69660   0.69440   Biso      1.000     H          0.092208  
         H2        1.0000    0.42040   0.30090   0.80960   Biso      1.000     H          0.095833  
         H3        1.0000    0.17090   0.80340   0.19440   Biso      1.000     H          0.092209  
         H4        1.0000    0.92040   0.19910   0.30960   Biso      1.000     H          0.095832  
         H5        1.0000    0.07960   0.80090   0.69040   Biso      1.000     H          0.095833  
         H6        1.0000    0.32910   0.30340   0.30560   Biso      1.000     H          0.092209  
         H7        1.0000    0.57960   0.69910   0.19040   Biso      1.000     H          0.095832  
         H8        1.0000    0.82910   0.19660   0.80560   Biso      1.000     H          0.092208  
         N1        1.0000    0.62300   0.89580   0.18084   Biso      1.000     N          -0.298779           
         N2        1.0000    0.76520   0.22880   0.36444   Biso      1.000     N          -0.33727399999999996          
         N3        1.0000    0.87700   0.39580   0.31916   Biso      1.000     N          -0.29878000000000005          
         N4        1.0000    0.32040   0.87500   0.25293   Biso      1.000     N          -0.34153  
         N5        1.0000    0.17630   0.71090   0.27706   Biso      1.000     N          -0.313921           
         N6        1.0000    0.73480   0.72880   0.13556   Biso      1.000     N          -0.33727399999999996          
         N7        1.0000    0.32370   0.21090   0.22294   Biso      1.000     N          -0.313921           
         N8        1.0000    0.17960   0.37500   0.24707   Biso      1.000     N          -0.34153  
         N9        1.0000    0.12300   0.60420   0.68084   Biso      1.000     N          -0.29877800000000004          
         N10       1.0000    0.67960   0.12500   0.74707   Biso      1.000     N          -0.341531           
         N11       1.0000    0.82370   0.28910   0.72294   Biso      1.000     N          -0.313922           
         N12       1.0000    0.26520   0.27120   0.86444   Biso      1.000     N          -0.33727399999999996          
         N13       1.0000    0.37700   0.10420   0.81916   Biso      1.000     N          -0.29877800000000004          
         N14       1.0000    0.82040   0.62500   0.75293   Biso      1.000     N          -0.341531           
         N15       1.0000    0.67630   0.78910   0.77706   Biso      1.000     N          -0.313922           
         N16       1.0000    0.23480   0.77120   0.63556   Biso      1.000     N          -0.33727399999999996          
         O1        1.0000    0.15990   0.15450   0.07113   Biso      1.000     O          -0.625675           
         O2        1.0000    0.00490   0.38290   0.09485   Biso      1.000     O          -0.603554           
         O3        1.0000    0.97510   0.50130   0.17837   Biso      1.000     O          -0.532062           
         O4        1.0000    0.65290   0.16430   0.18154   Biso      1.000     O          -0.547425           
         O5        1.0000    0.82830   0.15960   0.12128   Biso      1.000     O          -0.67555  
         O6        1.0000    0.95680   0.94710   0.05349   Biso      1.000     O          -0.618069           
         O7        1.0000    0.49510   0.88290   0.40515   Biso      1.000     O          -0.603554           
         O8        1.0000    0.15400   0.56610   0.38411   Biso      1.000     O          -0.572843           
         O9        1.0000    0.34010   0.65450   0.42887   Biso      1.000     O          -0.625675           
         O10       1.0000    0.67170   0.65960   0.37872   Biso      1.000     O          -0.675549           
         O11       1.0000    0.52490   0.00130   0.32163   Biso      1.000     O          -0.532062           
         O12       1.0000    0.84710   0.66430   0.31846   Biso      1.000     O          -0.547425           
         O13       1.0000    0.34600   0.06610   0.11589   Biso      1.000     O          -0.572843           
         O14       1.0000    0.94220   0.72780   0.05811   Biso      1.000     O          -0.6334270000000001           
         O15       1.0000    0.44220   0.77220   0.55811   Biso      1.000     O          -0.633416           
         O16       1.0000    0.99510   0.61710   0.90515   Biso      1.000     O          -0.603564           
         O17       1.0000    0.32830   0.34040   0.62128   Biso      1.000     O          -0.675557           
         O18       1.0000    0.15290   0.33570   0.68154   Biso      1.000     O          -0.547423           
         O19       1.0000    0.47510   0.99870   0.67837   Biso      1.000     O          -0.532065           
         O20       1.0000    0.50490   0.11710   0.59485   Biso      1.000     O          -0.603564           
         O21       1.0000    0.65990   0.34550   0.57113   Biso      1.000     O          -0.625668           
         O22       1.0000    0.84600   0.43390   0.61589   Biso      1.000     O          -0.572843           
         O23       1.0000    0.05780   0.27220   0.94189   Biso      1.000     O          -0.633416           
         O24       1.0000    0.04320   0.05290   0.94651   Biso      1.000     O          -0.618069           
         O25       1.0000    0.17170   0.84040   0.87872   Biso      1.000     O          -0.675558           
         O26       1.0000    0.34710   0.83570   0.81846   Biso      1.000     O          -0.547423           
         O27       1.0000    0.02490   0.49870   0.82163   Biso      1.000     O          -0.532065           
         O28       1.0000    0.84010   0.84550   0.92887   Biso      1.000     O          -0.625667           
         O29       1.0000    0.65400   0.93390   0.88411   Biso      1.000     O          -0.572843           
         O30       1.0000    0.54320   0.44710   0.44651   Biso      1.000     O          -0.618069           
         O31       1.0000    0.45680   0.55290   0.55349   Biso      1.000     O          -0.6180680000000001           
         O32       1.0000    0.55780   0.22780   0.44189   Biso      1.000     O          -0.6334270000000001 