
##########################################################################
#               Crystallographic Information Format file
#               Produced by PyCifRW module
#
#  This is a CIF file.  CIF has been adopted by the International
#  Union of Crystallography as the standard for data archiving and
#  transmission.
#
#  For information on this file format, follow the CIF links at
#  http://www.iucr.org
##########################################################################

data_image0

_cell_length_a                          9.2992
_cell_length_b                          11.519
_cell_length_c                          13.262
_cell_angle_alpha                       90
_cell_angle_beta                        90.913
_cell_angle_gamma                       90
_symmetry_space_group_name_H-M          'P 1'
_symmetry_int_tables_number             1
loop_
  _symmetry_equiv_pos_as_xyz
         'x, y, z' 
loop_
  _atom_site_label
  _atom_site_occupancy
  _atom_site_fract_x
  _atom_site_fract_y
  _atom_site_fract_z
  _atom_site_thermal_displace_type
  _atom_site_B_iso_or_equiv
  _atom_site_type_symbol
  _atom_site_charge
         C1        1.0000    0.69600   0.47150   0.79307   Biso      1.000     C          -0.078849           
         C2        1.0000    0.01670   0.52410   0.64871   Biso      1.000     C          0.5929270000000001  
         C3        1.0000    0.30540   0.70230   0.57702   Biso      1.000     C          0.10966500000000001           
         C4        1.0000    0.30870   0.82220   0.57981   Biso      1.000     C          -0.198048           
         C5        1.0000    0.35760   0.07760   0.54835   Biso      1.000     C          -0.20741700000000002          
         C6        1.0000    0.35540   0.19760   0.54444   Biso      1.000     C          0.098159  
         C7        1.0000    0.51110   0.32720   0.78855   Biso      1.000     C          -0.091237           
         C8        1.0000    0.56870   0.27680   0.87495   Biso      1.000     C          -0.22753299999999999          
         C9        1.0000    0.69100   0.32420   0.91891   Biso      1.000     C          0.277733  
         C10       1.0000    0.98330   0.47590   0.35129   Biso      1.000     C          0.592934  
         C11       1.0000    0.07440   0.57579   0.74613   Biso      1.000     C          -0.059762           
         C12       1.0000    0.92560   0.42421   0.25387   Biso      1.000     C          -0.059761           
         C13       1.0000    0.74540   0.42180   0.12049   Biso      1.000     C          -0.229316           
         C14       1.0000    0.80900   0.32420   0.08109   Biso      1.000     C          0.277746  
         C15       1.0000    0.93130   0.27680   0.12505   Biso      1.000     C          -0.22753  
         C16       1.0000    0.98890   0.32720   0.21145   Biso      1.000     C          -0.09121900000000001          
         C17       1.0000    0.14460   0.19760   0.45556   Biso      1.000     C          0.098151  
         C18       1.0000    0.14240   0.07760   0.45165   Biso      1.000     C          -0.20741500000000002          
         C19       1.0000    0.19130   0.82220   0.42019   Biso      1.000     C          -0.19805599999999998          
         C20       1.0000    0.19460   0.70230   0.42298   Biso      1.000     C          0.109667  
         C21       1.0000    0.51670   0.47590   0.64871   Biso      1.000     C          0.5928869999999999  
         C22       1.0000    0.80400   0.47150   0.20693   Biso      1.000     C          -0.07883899999999999          
         C23       1.0000    0.19600   0.52850   0.79307   Biso      1.000     C          -0.078837           
         C24       1.0000    0.25460   0.57820   0.87951   Biso      1.000     C          -0.22931700000000002          
         C25       1.0000    0.19100   0.67580   0.91891   Biso      1.000     C          0.277744  
         C26       1.0000    0.75000   0.11460   0.50000   Biso      1.000     C          0.099635  
         C27       1.0000    0.75000   0.98600   0.50000   Biso      1.000     C          0.09876   
         C28       1.0000    0.25000   0.88540   0.50000   Biso      1.000     C          0.099635  
         C29       1.0000    0.25000   0.01400   0.50000   Biso      1.000     C          0.098759  
         C30       1.0000    0.69460   0.29770   0.42298   Biso      1.000     C          0.10966300000000001           
         C31       1.0000    0.69130   0.17780   0.42019   Biso      1.000     C          -0.198047           
         C32       1.0000    0.64240   0.92240   0.45165   Biso      1.000     C          -0.207418           
         C33       1.0000    0.64460   0.80240   0.45556   Biso      1.000     C          0.09816799999999999           
         C34       1.0000    0.48890   0.67280   0.21145   Biso      1.000     C          -0.09123200000000001          
         C35       1.0000    0.43130   0.72320   0.12505   Biso      1.000     C          -0.227532           
         C36       1.0000    0.30900   0.67580   0.08109   Biso      1.000     C          0.277737  
         C37       1.0000    0.24540   0.57820   0.12049   Biso      1.000     C          -0.22932199999999997          
         C38       1.0000    0.30400   0.52850   0.20693   Biso      1.000     C          -0.07885  
         C39       1.0000    0.42560   0.57579   0.25387   Biso      1.000     C          -0.059743           
         C40       1.0000    0.48330   0.52410   0.35129   Biso      1.000     C          0.5928899999999999  
         C41       1.0000    0.80540   0.29770   0.57702   Biso      1.000     C          0.109669  
         C42       1.0000    0.80870   0.17780   0.57981   Biso      1.000     C          -0.198054           
         C43       1.0000    0.85760   0.92240   0.54835   Biso      1.000     C          -0.20741500000000002          
         C44       1.0000    0.85540   0.80240   0.54444   Biso      1.000     C          0.09814500000000001           
         C45       1.0000    0.01110   0.67280   0.78855   Biso      1.000     C          -0.091226           
         C46       1.0000    0.06870   0.72320   0.87495   Biso      1.000     C          -0.227525           
         C47       1.0000    0.57440   0.42421   0.74613   Biso      1.000     C          -0.059741999999999996         
         C48       1.0000    0.75460   0.42180   0.87951   Biso      1.000     C          -0.229323           
         Co1       1.0000    0.25000   0.44970   0.50000   Biso      1.000     Co          0.913784  
         Co2       1.0000    0.75000   0.55030   0.50000   Biso      1.000     Co          0.9137780000000001  
         H1        1.0000    0.65610   0.33800   0.36810   Biso      1.000     H          0.09565599999999999           
         H2        1.0000    0.76160   0.53740   0.23400   Biso      1.000     H          0.118112  
         H3        1.0000    0.66430   0.45390   0.08950   Biso      1.000     H          0.13211900000000001           
         H4        1.0000    0.97450   0.21180   0.09690   Biso      1.000     H          0.13531500000000002           
         H5        1.0000    0.07110   0.29560   0.24140   Biso      1.000     H          0.114201  
         H6        1.0000    0.06860   0.23790   0.42560   Biso      1.000     H          0.09360299999999999           
         H7        1.0000    0.06880   0.03950   0.41670   Biso      1.000     H          0.122733  
         H8        1.0000    0.15000   0.86040   0.36520   Biso      1.000     H          0.13203   
         H9        1.0000    0.15610   0.66200   0.36810   Biso      1.000     H          0.09565499999999999           
         H10       1.0000    0.83570   0.45390   0.91050   Biso      1.000     H          0.132114  
         H11       1.0000    0.52550   0.21180   0.90310   Biso      1.000     H          0.13531300000000002           
         H12       1.0000    0.42890   0.29560   0.75860   Biso      1.000     H          0.114201  
         H13       1.0000    0.43140   0.23790   0.57440   Biso      1.000     H          0.093606  
         H14       1.0000    0.43120   0.03950   0.58330   Biso      1.000     H          0.122734  
         H15       1.0000    0.35000   0.86040   0.63480   Biso      1.000     H          0.13203   
         H16       1.0000    0.73840   0.53740   0.76600   Biso      1.000     H          0.11810699999999999           
         H17       1.0000    0.23840   0.46260   0.76600   Biso      1.000     H          0.11810999999999999           
         H18       1.0000    0.65000   0.13960   0.36520   Biso      1.000     H          0.132029  
         H19       1.0000    0.34390   0.66200   0.63190   Biso      1.000     H          0.095657  
         H20       1.0000    0.56860   0.76210   0.42560   Biso      1.000     H          0.093606  
         H21       1.0000    0.57110   0.70440   0.24140   Biso      1.000     H          0.114201  
         H22       1.0000    0.47450   0.78820   0.09690   Biso      1.000     H          0.135311  
         H23       1.0000    0.16430   0.54610   0.08950   Biso      1.000     H          0.132115  
         H24       1.0000    0.26160   0.46260   0.23400   Biso      1.000     H          0.11810799999999999           
         H25       1.0000    0.56880   0.96050   0.41670   Biso      1.000     H          0.122735  
         H26       1.0000    0.85000   0.13960   0.63480   Biso      1.000     H          0.13203   
         H27       1.0000    0.84390   0.33800   0.63190   Biso      1.000     H          0.095657  
         H28       1.0000    0.93120   0.96050   0.58330   Biso      1.000     H          0.122734  
         H29       1.0000    0.93140   0.76210   0.57440   Biso      1.000     H          0.09360299999999999           
         H30       1.0000    0.92890   0.70440   0.75860   Biso      1.000     H          0.1142    
         H31       1.0000    0.02550   0.78820   0.90310   Biso      1.000     H          0.135312  
         H32       1.0000    0.33570   0.54610   0.91050   Biso      1.000     H          0.132118  
         N1        1.0000    0.75000   0.74130   0.50000   Biso      1.000     N          -0.19891199999999998          
         N2        1.0000    0.75000   0.35920   0.50000   Biso      1.000     N          -0.241162           
         N3        1.0000    0.25000   0.25870   0.50000   Biso      1.000     N          -0.198914           
         N4        1.0000    0.25000   0.64080   0.50000   Biso      1.000     N          -0.241164           
         O1        1.0000    0.75000   0.26320   0.00000   Biso      1.000     O          -0.24891  
         O2        1.0000    0.10331   0.43752   0.38090   Biso      1.000     O          -0.565839           
         O3        1.0000    0.91122   0.55311   0.39329   Biso      1.000     O          -0.575814           
         O4        1.0000    0.39669   0.43752   0.61910   Biso      1.000     O          -0.56583  
         O5        1.0000    0.58878   0.55311   0.60671   Biso      1.000     O          -0.5758989999999999           
         O6        1.0000    0.89669   0.56248   0.61910   Biso      1.000     O          -0.565793           
         O7        1.0000    0.08878   0.44689   0.60671   Biso      1.000     O          -0.575854           
         O8        1.0000    0.60331   0.56248   0.38090   Biso      1.000     O          -0.565868           
         O9        1.0000    0.41122   0.44689   0.39329   Biso      1.000     O          -0.575858           
         O10       1.0000    0.25000   0.73680   0.00000   Biso      1.000     O          -0.24890900000000002 