
##########################################################################
#               Crystallographic Information Format file
#               Produced by PyCifRW module
#
#  This is a CIF file.  CIF has been adopted by the International
#  Union of Crystallography as the standard for data archiving and
#  transmission.
#
#  For information on this file format, follow the CIF links at
#  http://www.iucr.org
##########################################################################

data_image0

_cell_length_a                          9.2236
_cell_length_b                          10.3657
_cell_length_c                          12.8839
_cell_angle_alpha                       75.576
_cell_angle_beta                        69.469
_cell_angle_gamma                       86.168
_symmetry_space_group_name_H-M          'P 1'
_symmetry_int_tables_number             1
loop_
  _symmetry_equiv_pos_as_xyz
         'x, y, z' 
loop_
  _atom_site_label
  _atom_site_occupancy
  _atom_site_fract_x
  _atom_site_fract_y
  _atom_site_fract_z
  _atom_site_thermal_displace_type
  _atom_site_B_iso_or_equiv
  _atom_site_type_symbol
  _atom_site_charge
         C1        1.0000    0.64930   0.49390   0.35690   Biso      1.000     C          -0.1845   
         C2        1.0000    0.03120   0.03980   0.52960   Biso      1.000     C          0.16408599999999998           
         C3        1.0000    0.99010   0.05590   0.83040   Biso      1.000     C          0.628579  
         C4        1.0000    0.27700   0.71590   0.50000   Biso      1.000     C          0.082751  
         C5        1.0000    0.18890   0.69150   0.61520   Biso      1.000     C          -0.152698           
         C6        1.0000    0.22690   0.58550   0.68820   Biso      1.000     C          0.017136000000000002          
         C7        1.0000    0.35070   0.50610   0.64310   Biso      1.000     C          -0.184505           
         C8        1.0000    0.43360   0.53970   0.52530   Biso      1.000     C          0.164907  
         C9        1.0000    0.13690   0.55470   0.81510   Biso      1.000     C          0.618677  
         C10       1.0000    0.13870   0.19390   0.63170   Biso      1.000     C          -0.151159           
         C11       1.0000    0.17900   0.21720   0.51470   Biso      1.000     C          0.080368  
         C12       1.0000    0.86310   0.44530   0.18490   Biso      1.000     C          0.6186619999999999  
         C13       1.0000    0.56640   0.46030   0.47470   Biso      1.000     C          0.164928  
         C14       1.0000    0.77310   0.41450   0.31180   Biso      1.000     C          0.017131  
         C15       1.0000    0.81110   0.30850   0.38480   Biso      1.000     C          -0.152699           
         C16       1.0000    0.72300   0.28410   0.50000   Biso      1.000     C          0.082776  
         C17       1.0000    0.00990   0.94410   0.16960   Biso      1.000     C          0.628582  
         C18       1.0000    0.96880   0.96020   0.47040   Biso      1.000     C          0.164079  
         C19       1.0000    0.01310   0.99150   0.35250   Biso      1.000     C          -0.19247  
         C20       1.0000    0.96050   0.91200   0.29980   Biso      1.000     C          0.01819   
         C21       1.0000    0.86130   0.80610   0.36830   Biso      1.000     C          -0.15115599999999998          
         C22       1.0000    0.82100   0.78280   0.48530   Biso      1.000     C          0.080367  
         C23       1.0000    0.98690   0.00850   0.64750   Biso      1.000     C          -0.19246300000000002          
         C24       1.0000    0.03950   0.08800   0.70020   Biso      1.000     C          0.018191  
         Eu1       1.0000    0.95574   0.75083   0.99803   Biso      1.000     Eu          1.374961  
         Eu2       1.0000    0.04426   0.24917   0.00197   Biso      1.000     Eu          1.374968  
         H1        1.0000    0.82240   0.75160   0.33620   Biso      1.000     H          0.130956  
         H2        1.0000    0.07760   0.06510   0.30880   Biso      1.000     H          0.139234  
         H3        1.0000    0.75030   0.21250   0.54930   Biso      1.000     H          0.093895  
         H4        1.0000    0.89340   0.25460   0.35770   Biso      1.000     H          0.12831700000000001           
         H5        1.0000    0.62270   0.56770   0.30950   Biso      1.000     H          0.138007  
         H6        1.0000    0.24690   0.28810   0.46930   Biso      1.000     H          0.095955  
         H7        1.0000    0.17760   0.24840   0.66380   Biso      1.000     H          0.130958  
         H8        1.0000    0.92240   0.93490   0.69120   Biso      1.000     H          0.139238  
         H9        1.0000    0.24970   0.78750   0.45070   Biso      1.000     H          0.0939    
         H10       1.0000    0.10660   0.74540   0.64230   Biso      1.000     H          0.12831800000000002           
         H11       1.0000    0.37730   0.43230   0.69050   Biso      1.000     H          0.138006  
         H12       1.0000    0.75310   0.71190   0.53070   Biso      1.000     H          0.095954  
         N1        1.0000    0.37640   0.23950   0.95250   Biso      1.000     N          0.695914  
         N2        1.0000    0.87390   0.85660   0.53750   Biso      1.000     N          -0.260168           
         N3        1.0000    0.60270   0.35640   0.54540   Biso      1.000     N          -0.242673           
         N4        1.0000    0.12610   0.14340   0.46250   Biso      1.000     N          -0.260152           
         N5        1.0000    0.39730   0.64360   0.45460   Biso      1.000     N          -0.24263200000000001          
         N6        1.0000    0.62360   0.76050   0.04750   Biso      1.000     N          0.69592   
         O1        1.0000    0.28710   0.27890   0.03830   Biso      1.000     O          -0.362844           
         O2        1.0000    0.96330   0.86440   0.13020   Biso      1.000     O          -0.602595           
         O3        1.0000    0.09360   0.04550   0.11430   Biso      1.000     O          -0.578004           
         O4        1.0000    0.96300   0.36250   0.14900   Biso      1.000     O          -0.591427           
         O5        1.0000    0.83230   0.54940   0.12450   Biso      1.000     O          -0.5967   
         O6        1.0000    0.48200   0.75690   0.06790   Biso      1.000     O          -0.296532           
         O7        1.0000    0.68030   0.80270   0.10690   Biso      1.000     O          -0.360211           
         O8        1.0000    0.03670   0.13560   0.86980   Biso      1.000     O          -0.602588           
         O9        1.0000    0.90640   0.95450   0.88570   Biso      1.000     O          -0.578025           
         O10       1.0000    0.03700   0.63750   0.85100   Biso      1.000     O          -0.591422           
         O11       1.0000    0.16770   0.45060   0.87550   Biso      1.000     O          -0.5967020000000001           
         O12       1.0000    0.31970   0.19730   0.89310   Biso      1.000     O          -0.360214           
         O13       1.0000    0.71290   0.72110   0.96170   Biso      1.000     O          -0.362846           
         O14       1.0000    0.51800   0.24310   0.93210   Biso      1.000     O          -0.296526 