
##########################################################################
#               Crystallographic Information Format file
#               Produced by PyCifRW module
#
#  This is a CIF file.  CIF has been adopted by the International
#  Union of Crystallography as the standard for data archiving and
#  transmission.
#
#  For information on this file format, follow the CIF links at
#  http://www.iucr.org
##########################################################################

data_image0

_cell_length_a                          9.8856
_cell_length_b                          11.6827
_cell_length_c                          13.441
_cell_angle_alpha                       66.863
_cell_angle_beta                        86.995
_cell_angle_gamma                       76.582
_symmetry_space_group_name_H-M          'P 1'
_symmetry_int_tables_number             1
loop_
  _symmetry_equiv_pos_as_xyz
         'x, y, z' 
loop_
  _atom_site_label
  _atom_site_occupancy
  _atom_site_fract_x
  _atom_site_fract_y
  _atom_site_fract_z
  _atom_site_thermal_displace_type
  _atom_site_B_iso_or_equiv
  _atom_site_type_symbol
  _atom_site_charge
         C1        1.0000    0.01010   0.00750   0.35860   Biso      1.000     C          -0.175556           
         C2        1.0000    0.71000   0.29130   0.84150   Biso      1.000     C          0.601998  
         C3        1.0000    0.90100   0.39900   0.58280   Biso      1.000     C          0.086183  
         C4        1.0000    0.87900   0.33050   0.68790   Biso      1.000     C          -0.173452           
         C5        1.0000    0.74900   0.36500   0.72700   Biso      1.000     C          0.03125   
         C6        1.0000    0.65050   0.46590   0.65750   Biso      1.000     C          -0.191798           
         C7        1.0000    0.68540   0.53010   0.55240   Biso      1.000     C          0.166555  
         C8        1.0000    0.96080   0.98800   0.46000   Biso      1.000     C          0.169777  
         C9        1.0000    0.58030   0.64210   0.47330   Biso      1.000     C          0.182509  
         C10       1.0000    0.51150   0.79890   0.29780   Biso      1.000     C          -0.001005           
         C11       1.0000    0.38590   0.83520   0.33820   Biso      1.000     C          -0.15944  
         C12       1.0000    0.36410   0.77200   0.44730   Biso      1.000     C          0.086743  
         C13       1.0000    0.53400   0.86740   0.18030   Biso      1.000     C          0.724916  
         C14       1.0000    0.98540   0.00580   0.17340   Biso      1.000     C          0.711833  
         C15       1.0000    0.77100   0.93300   0.42230   Biso      1.000     C          0.10049   
         C16       1.0000    0.61220   0.70070   0.36640   Biso      1.000     C          -0.171614           
         C17       1.0000    0.29000   0.70870   0.15850   Biso      1.000     C          0.601998  
         C18       1.0000    0.09900   0.60100   0.41720   Biso      1.000     C          0.086183  
         C19       1.0000    0.12100   0.66950   0.31210   Biso      1.000     C          -0.173452           
         C20       1.0000    0.03920   0.01200   0.54000   Biso      1.000     C          0.169774  
         C21       1.0000    0.98990   0.99250   0.64140   Biso      1.000     C          -0.175553           
         C22       1.0000    0.06640   0.01060   0.71520   Biso      1.000     C          0.003674  
         C23       1.0000    0.19030   0.05030   0.68160   Biso      1.000     C          -0.157102           
         C24       1.0000    0.22900   0.06700   0.57770   Biso      1.000     C          0.100495  
         C25       1.0000    0.01460   0.99420   0.82660   Biso      1.000     C          0.711833  
         C26       1.0000    0.46600   0.13260   0.81970   Biso      1.000     C          0.724915  
         C27       1.0000    0.63590   0.22800   0.55270   Biso      1.000     C          0.086745  
         C28       1.0000    0.61410   0.16480   0.66180   Biso      1.000     C          -0.159447           
         C29       1.0000    0.48850   0.20110   0.70220   Biso      1.000     C          -0.000999           
         C30       1.0000    0.38780   0.29930   0.63360   Biso      1.000     C          -0.171618           
         C31       1.0000    0.41970   0.35790   0.52670   Biso      1.000     C          0.182513  
         C32       1.0000    0.31460   0.46990   0.44760   Biso      1.000     C          0.166551  
         C33       1.0000    0.34950   0.53410   0.34250   Biso      1.000     C          -0.191795           
         C34       1.0000    0.25100   0.63500   0.27300   Biso      1.000     C          0.03125   
         C35       1.0000    0.80970   0.94970   0.31840   Biso      1.000     C          -0.157098           
         C36       1.0000    0.93360   0.98940   0.28480   Biso      1.000     C          0.003674  
         Dy1       1.0000    0.76331   0.97386   0.99574   Biso      1.000     Dy          2.195886  
         Dy2       1.0000    0.23669   0.02614   0.00426   Biso      1.000     Dy          2.195886  
         H1        1.0000    0.98720   0.37500   0.55680   Biso      1.000     H          0.077668  
         H2        1.0000    0.94810   0.26310   0.73220   Biso      1.000     H          0.119195  
         H3        1.0000    0.56240   0.49010   0.68090   Biso      1.000     H          0.13448   
         H4        1.0000    0.69880   0.67470   0.34180   Biso      1.000     H          0.136067  
         H5        1.0000    0.31630   0.90120   0.29320   Biso      1.000     H          0.125121  
         H6        1.0000    0.27840   0.79600   0.47420   Biso      1.000     H          0.090344  
         H7        1.0000    0.68780   0.90810   0.44350   Biso      1.000     H          0.088653  
         H8        1.0000    0.75550   0.93470   0.27230   Biso      1.000     H          0.116491  
         H9        1.0000    0.90630   0.96750   0.66020   Biso      1.000     H          0.136156  
         H10       1.0000    0.01280   0.62500   0.44320   Biso      1.000     H          0.077668  
         H11       1.0000    0.05190   0.73690   0.26780   Biso      1.000     H          0.119195  
         H12       1.0000    0.43760   0.50990   0.31910   Biso      1.000     H          0.13448   
         H13       1.0000    0.30120   0.32530   0.65820   Biso      1.000     H          0.136067  
         H14       1.0000    0.68370   0.09880   0.70680   Biso      1.000     H          0.125121  
         H15       1.0000    0.72160   0.20400   0.52580   Biso      1.000     H          0.090344  
         H16       1.0000    0.31220   0.09190   0.55650   Biso      1.000     H          0.088653  
         H17       1.0000    0.24450   0.06530   0.72770   Biso      1.000     H          0.116492  
         H18       1.0000    0.09370   0.03250   0.33980   Biso      1.000     H          0.136156  
         N1        1.0000    0.15990   0.04950   0.50610   Biso      1.000     N          -0.279927           
         N2        1.0000    0.19040   0.50300   0.48580   Biso      1.000     N          -0.301734           
         N3        1.0000    0.53730   0.32280   0.48450   Biso      1.000     N          -0.276124           
         N4        1.0000    0.46270   0.67720   0.51550   Biso      1.000     N          -0.276124           
         N5        1.0000    0.80960   0.49700   0.51420   Biso      1.000     N          -0.301734           
         N6        1.0000    0.84010   0.95050   0.49390   Biso      1.000     N          -0.279926           
         O1        1.0000    0.89600   0.97300   0.84440   Biso      1.000     O          -0.669905           
         O2        1.0000    0.60370   0.33620   0.87650   Biso      1.000     O          -0.542723           
         O3        1.0000    0.79720   0.18420   0.89270   Biso      1.000     O          -0.754537           
         O4        1.0000    0.43080   0.94150   0.12120   Biso      1.000     O          -0.765294           
         O5        1.0000    0.65480   0.85410   0.14990   Biso      1.000     O          -0.716238           
         O6        1.0000    0.10400   0.02700   0.15560   Biso      1.000     O          -0.669905           
         O7        1.0000    0.90950   0.99630   0.10830   Biso      1.000     O          -0.749546           
         O8        1.0000    0.39630   0.66380   0.12350   Biso      1.000     O          -0.542723           
         O9        1.0000    0.20280   0.81580   0.10730   Biso      1.000     O          -0.754537           
         O10       1.0000    0.56920   0.05850   0.87880   Biso      1.000     O          -0.765294           
         O11       1.0000    0.34520   0.14590   0.85010   Biso      1.000     O          -0.716238           
         O12       1.0000    0.09050   0.00370   0.89170   Biso      1.000     O          -0.749545 