
##########################################################################
#               Crystallographic Information Format file
#               Produced by PyCifRW module
#
#  This is a CIF file.  CIF has been adopted by the International
#  Union of Crystallography as the standard for data archiving and
#  transmission.
#
#  For information on this file format, follow the CIF links at
#  http://www.iucr.org
##########################################################################

data_image0

_cell_length_a                          24.481
_cell_length_b                          9.3535
_cell_length_c                          10.3669
_cell_angle_alpha                       90
_cell_angle_beta                        97.336
_cell_angle_gamma                       90
_symmetry_space_group_name_H-M          'P 1'
_symmetry_int_tables_number             1
loop_
  _symmetry_equiv_pos_as_xyz
         'x, y, z' 
loop_
  _atom_site_label
  _atom_site_occupancy
  _atom_site_fract_x
  _atom_site_fract_y
  _atom_site_fract_z
  _atom_site_thermal_displace_type
  _atom_site_B_iso_or_equiv
  _atom_site_type_symbol
  _atom_site_charge
         C1        1.0000    0.08650   0.92920   0.52010   Biso      1.000     C          0.697583  
         C2        1.0000    0.85360   0.09620   0.43440   Biso      1.000     C          0.095259  
         C3        1.0000    0.82210   0.82150   0.00790   Biso      1.000     C          -0.188255           
         C4        1.0000    0.14640   0.09620   0.06560   Biso      1.000     C          0.095259  
         C5        1.0000    0.76770   0.79530   0.96200   Biso      1.000     C          0.103021  
         C6        1.0000    0.74250   0.85230   0.85120   Biso      1.000     C          -0.167152           
         C7        1.0000    0.08650   0.07080   0.02010   Biso      1.000     C          0.6975819999999999  
         C8        1.0000    0.77220   0.93170   0.78200   Biso      1.000     C          0.079842  
         C9        1.0000    0.27220   0.56830   0.28200   Biso      1.000     C          0.079794  
         C10       1.0000    0.24250   0.64770   0.35120   Biso      1.000     C          -0.167124           
         C11       1.0000    0.26770   0.70470   0.46200   Biso      1.000     C          0.10303599999999999           
         C12       1.0000    0.41350   0.42920   0.97990   Biso      1.000     C          0.697583  
         C13       1.0000    0.35360   0.40380   0.93440   Biso      1.000     C          0.095259  
         C14       1.0000    0.32210   0.32150   0.00790   Biso      1.000     C          -0.188252           
         C15       1.0000    0.32210   0.67850   0.50790   Biso      1.000     C          -0.188255           
         C16       1.0000    0.26770   0.29530   0.96200   Biso      1.000     C          0.103022  
         C17       1.0000    0.24250   0.35230   0.85120   Biso      1.000     C          -0.167153           
         C18       1.0000    0.35360   0.59620   0.43440   Biso      1.000     C          0.095261  
         C19       1.0000    0.27220   0.43170   0.78200   Biso      1.000     C          0.079842  
         C20       1.0000    0.41350   0.57080   0.47990   Biso      1.000     C          0.6975819999999999  
         C21       1.0000    0.77220   0.06830   0.28200   Biso      1.000     C          0.07979299999999999           
         C22       1.0000    0.74250   0.14770   0.35120   Biso      1.000     C          -0.167123           
         C23       1.0000    0.76770   0.20470   0.46200   Biso      1.000     C          0.10303399999999999           
         C24       1.0000    0.91350   0.07080   0.47990   Biso      1.000     C          0.6975819999999999  
         C25       1.0000    0.91350   0.92920   0.97990   Biso      1.000     C          0.6975819999999999  
         C26       1.0000    0.17790   0.17850   0.99210   Biso      1.000     C          -0.188252           
         C27       1.0000    0.85360   0.90380   0.93440   Biso      1.000     C          0.095261  
         C28       1.0000    0.23230   0.20470   0.03800   Biso      1.000     C          0.103022  
         C29       1.0000    0.14640   0.90380   0.56560   Biso      1.000     C          0.095259  
         C30       1.0000    0.17790   0.82150   0.49210   Biso      1.000     C          -0.188252           
         C31       1.0000    0.23230   0.79530   0.53800   Biso      1.000     C          0.10302   
         C32       1.0000    0.25750   0.85230   0.64880   Biso      1.000     C          -0.167153           
         C33       1.0000    0.72780   0.56830   0.21800   Biso      1.000     C          0.07979299999999999           
         C34       1.0000    0.22780   0.93170   0.71800   Biso      1.000     C          0.079842  
         C35       1.0000    0.75750   0.64770   0.14880   Biso      1.000     C          -0.167124           
         C36       1.0000    0.73230   0.70470   0.03800   Biso      1.000     C          0.10303599999999999           
         C37       1.0000    0.67790   0.67850   0.99210   Biso      1.000     C          -0.188255           
         C38       1.0000    0.58650   0.42920   0.52010   Biso      1.000     C          0.6975819999999999  
         C39       1.0000    0.64640   0.40380   0.56560   Biso      1.000     C          0.095259  
         C40       1.0000    0.64640   0.59620   0.06560   Biso      1.000     C          0.095261  
         C41       1.0000    0.67790   0.32150   0.49210   Biso      1.000     C          -0.188254           
         C42       1.0000    0.25750   0.14770   0.14880   Biso      1.000     C          -0.167153           
         C43       1.0000    0.22780   0.06830   0.21800   Biso      1.000     C          0.079842  
         C44       1.0000    0.72780   0.43170   0.71800   Biso      1.000     C          0.07979299999999999           
         C45       1.0000    0.75750   0.35230   0.64880   Biso      1.000     C          -0.167124           
         C46       1.0000    0.73230   0.29530   0.53800   Biso      1.000     C          0.10303599999999999           
         C47       1.0000    0.82210   0.17850   0.50790   Biso      1.000     C          -0.188252           
         C48       1.0000    0.58650   0.57080   0.02010   Biso      1.000     C          0.6975819999999999  
         H1        1.0000    0.79470   0.66380   0.17560   Biso      1.000     H          0.138784  
         H2        1.0000    0.66250   0.71580   0.91250   Biso      1.000     H          0.139451  
         H3        1.0000    0.20530   0.66380   0.32440   Biso      1.000     H          0.138784  
         H4        1.0000    0.25520   0.53140   0.20370   Biso      1.000     H          0.09427200000000001           
         H5        1.0000    0.75520   0.03140   0.20370   Biso      1.000     H          0.09427200000000001           
         H6        1.0000    0.16250   0.21580   0.91250   Biso      1.000     H          0.139451  
         H7        1.0000    0.70530   0.16380   0.32440   Biso      1.000     H          0.138784  
         H8        1.0000    0.74480   0.53140   0.29630   Biso      1.000     H          0.09427200000000001           
         H9        1.0000    0.29470   0.16380   0.17560   Biso      1.000     H          0.138786  
         H10       1.0000    0.33750   0.71580   0.58750   Biso      1.000     H          0.139451  
         H11       1.0000    0.24480   0.03140   0.29630   Biso      1.000     H          0.094269  
         H12       1.0000    0.83750   0.21580   0.58750   Biso      1.000     H          0.139451  
         H13       1.0000    0.24480   0.96860   0.79630   Biso      1.000     H          0.09426799999999999           
         H14       1.0000    0.79470   0.33620   0.67560   Biso      1.000     H          0.138784  
         H15       1.0000    0.74480   0.46860   0.79630   Biso      1.000     H          0.09427200000000001           
         H16       1.0000    0.16250   0.78420   0.41250   Biso      1.000     H          0.13945   
         H17       1.0000    0.66250   0.28420   0.41250   Biso      1.000     H          0.139451  
         H18       1.0000    0.83750   0.78420   0.08750   Biso      1.000     H          0.139451  
         H19       1.0000    0.70530   0.83620   0.82440   Biso      1.000     H          0.138786  
         H20       1.0000    0.29470   0.83620   0.67560   Biso      1.000     H          0.138786  
         H21       1.0000    0.75520   0.96860   0.70370   Biso      1.000     H          0.094269  
         H22       1.0000    0.25520   0.46860   0.70370   Biso      1.000     H          0.09426799999999999           
         H23       1.0000    0.20530   0.33620   0.82440   Biso      1.000     H          0.138786  
         H24       1.0000    0.33750   0.28420   0.08750   Biso      1.000     H          0.139451  
         N1        1.0000    0.17160   0.03570   0.18110   Biso      1.000     N          -0.297125           
         N2        1.0000    0.50000   0.81300   0.75000   Biso      1.000     N          0.630919  
         N3        1.0000    0.67160   0.46430   0.68110   Biso      1.000     N          -0.297119           
         N4        1.0000    0.17160   0.96430   0.68110   Biso      1.000     N          -0.297125           
         N5        1.0000    0.32840   0.53570   0.31890   Biso      1.000     N          -0.297119           
         N6        1.0000    0.82840   0.96430   0.81890   Biso      1.000     N          -0.297125           
         N7        1.0000    0.00000   0.31300   0.75000   Biso      1.000     N          0.630919  
         N8        1.0000    0.50000   0.18700   0.25000   Biso      1.000     N          0.630919  
         N9        1.0000    0.00000   0.68700   0.25000   Biso      1.000     N          0.630919  
         N10       1.0000    0.32840   0.46430   0.81890   Biso      1.000     N          -0.297125           
         N11       1.0000    0.82840   0.03570   0.31890   Biso      1.000     N          -0.297119           
         N12       1.0000    0.67160   0.53570   0.18110   Biso      1.000     N          -0.297119           
         O1        1.0000    0.55800   0.52200   0.09950   Biso      1.000     O          -0.726902           
         O2        1.0000    0.96940   0.25470   0.81710   Biso      1.000     O          -0.419996           
         O3        1.0000    0.97170   0.47000   0.74030   Biso      1.000     O          -0.251051           
         O4        1.0000    0.97170   0.53000   0.24030   Biso      1.000     O          -0.251051           
         O5        1.0000    0.96940   0.74530   0.31710   Biso      1.000     O          -0.419995           
         O6        1.0000    0.07050   0.90400   0.40510   Biso      1.000     O          -0.6575880000000001           
         O7        1.0000    0.05800   0.97800   0.59950   Biso      1.000     O          -0.726902           
         O8        1.0000    0.46940   0.75470   0.81710   Biso      1.000     O          -0.419996           
         O9        1.0000    0.57050   0.59600   0.90510   Biso      1.000     O          -0.6575880000000001           
         O10       1.0000    0.47170   0.97000   0.74030   Biso      1.000     O          -0.251051           
         O11       1.0000    0.07050   0.09600   0.90510   Biso      1.000     O          -0.6575880000000001           
         O12       1.0000    0.52830   0.03000   0.25970   Biso      1.000     O          -0.251051           
         O13       1.0000    0.02830   0.53000   0.25970   Biso      1.000     O          -0.25104699999999996          
         O14       1.0000    0.53060   0.24530   0.18290   Biso      1.000     O          -0.419996           
         O15       1.0000    0.42950   0.40400   0.09490   Biso      1.000     O          -0.6575880000000001           
         O16       1.0000    0.44200   0.47800   0.90050   Biso      1.000     O          -0.726902           
         O17       1.0000    0.94200   0.02200   0.40050   Biso      1.000     O          -0.726902           
         O18       1.0000    0.92950   0.09600   0.59490   Biso      1.000     O          -0.6575880000000001           
         O19       1.0000    0.03060   0.25470   0.68290   Biso      1.000     O          -0.419996           
         O20       1.0000    0.02830   0.47000   0.75970   Biso      1.000     O          -0.251046           
         O21       1.0000    0.05800   0.02200   0.09950   Biso      1.000     O          -0.726902           
         O22       1.0000    0.03060   0.74530   0.18290   Biso      1.000     O          -0.419996           
         O23       1.0000    0.55800   0.47800   0.59950   Biso      1.000     O          -0.726902           
         O24       1.0000    0.94200   0.97800   0.90050   Biso      1.000     O          -0.726902           
         O25       1.0000    0.44200   0.52200   0.40050   Biso      1.000     O          -0.726902           
         O26       1.0000    0.42950   0.59600   0.59490   Biso      1.000     O          -0.6575880000000001           
         O27       1.0000    0.53060   0.75470   0.68290   Biso      1.000     O          -0.419996           
         O28       1.0000    0.52830   0.97000   0.75970   Biso      1.000     O          -0.251046           
         O29       1.0000    0.47170   0.03000   0.24030   Biso      1.000     O          -0.251046           
         O30       1.0000    0.46940   0.24530   0.31710   Biso      1.000     O          -0.419996           
         O31       1.0000    0.57050   0.40400   0.40510   Biso      1.000     O          -0.6575880000000001           
         O32       1.0000    0.92950   0.90400   0.09490   Biso      1.000     O          -0.6575880000000001           
         Tb1       1.0000    0.00000   0.98673   0.25000   Biso      1.000     Tb          2.088787  
         Tb2       1.0000    0.50000   0.48673   0.25000   Biso      1.000     Tb          2.088787  
         Tb3       1.0000    0.00000   0.01327   0.75000   Biso      1.000     Tb          2.088787  
         Tb4       1.0000    0.50000   0.51327   0.75000   Biso      1.000     Tb          2.088787 