
##########################################################################
#               Crystallographic Information Format file
#               Produced by PyCifRW module
#
#  This is a CIF file.  CIF has been adopted by the International
#  Union of Crystallography as the standard for data archiving and
#  transmission.
#
#  For information on this file format, follow the CIF links at
#  http://www.iucr.org
##########################################################################

data_image0

_cell_length_a                          9.9544
_cell_length_b                          11.7155
_cell_length_c                          13.5215
_cell_angle_alpha                       66.897
_cell_angle_beta                        87.033
_cell_angle_gamma                       76.402
_symmetry_space_group_name_H-M          'P 1'
_symmetry_int_tables_number             1
loop_
  _symmetry_equiv_pos_as_xyz
         'x, y, z' 
loop_
  _atom_site_label
  _atom_site_occupancy
  _atom_site_fract_x
  _atom_site_fract_y
  _atom_site_fract_z
  _atom_site_thermal_displace_type
  _atom_site_B_iso_or_equiv
  _atom_site_type_symbol
  _atom_site_charge
         C1        1.0000    0.48990   0.99300   0.64090   Biso      1.000     C          -0.186199           
         C2        1.0000    0.21100   0.29100   0.84120   Biso      1.000     C          0.547495  
         C3        1.0000    0.40010   0.40210   0.58470   Biso      1.000     C          0.089165  
         C4        1.0000    0.37610   0.33260   0.69100   Biso      1.000     C          -0.15024500000000002          
         C5        1.0000    0.24680   0.36520   0.72720   Biso      1.000     C          0.025792000000000002          
         C6        1.0000    0.14930   0.46700   0.65700   Biso      1.000     C          -0.182839           
         C7        1.0000    0.18420   0.53110   0.55340   Biso      1.000     C          0.179855  
         C8        1.0000    0.53830   0.01120   0.53940   Biso      1.000     C          0.170639  
         C9        1.0000    0.08200   0.64050   0.47570   Biso      1.000     C          0.163741  
         C10       1.0000    0.01100   0.79840   0.29890   Biso      1.000     C          0.012235  
         C11       1.0000    0.88440   0.83390   0.33980   Biso      1.000     C          -0.152988           
         C12       1.0000    0.86640   0.77260   0.44770   Biso      1.000     C          0.087751  
         C13       1.0000    0.03490   0.86690   0.18210   Biso      1.000     C          0.632174  
         C14       1.0000    0.51180   0.99660   0.82360   Biso      1.000     C          0.631386  
         C15       1.0000    0.72580   0.07070   0.57730   Biso      1.000     C          0.08351599999999999           
         C16       1.0000    0.11040   0.70060   0.36760   Biso      1.000     C          -0.18096099999999998          
         C17       1.0000    0.78900   0.70900   0.15880   Biso      1.000     C          0.5474939999999999  
         C18       1.0000    0.59990   0.59790   0.41530   Biso      1.000     C          0.089165  
         C19       1.0000    0.62390   0.66740   0.30900   Biso      1.000     C          -0.15024500000000002          
         C20       1.0000    0.46170   0.98880   0.46060   Biso      1.000     C          0.17063699999999998           
         C21       1.0000    0.51010   0.00700   0.35910   Biso      1.000     C          -0.186197           
         C22       1.0000    0.43530   0.98510   0.28770   Biso      1.000     C          0.017121  
         C23       1.0000    0.31500   0.94550   0.32030   Biso      1.000     C          -0.152231           
         C24       1.0000    0.27420   0.92930   0.42270   Biso      1.000     C          0.08352000000000001           
         C25       1.0000    0.48820   0.00340   0.17640   Biso      1.000     C          0.631386  
         C26       1.0000    0.96510   0.13310   0.81790   Biso      1.000     C          0.632174  
         C27       1.0000    0.13360   0.22740   0.55230   Biso      1.000     C          0.087744  
         C28       1.0000    0.11560   0.16610   0.66020   Biso      1.000     C          -0.152981           
         C29       1.0000    0.98900   0.20160   0.70110   Biso      1.000     C          0.012236  
         C30       1.0000    0.88960   0.29940   0.63240   Biso      1.000     C          -0.18096099999999998          
         C31       1.0000    0.91800   0.35950   0.52430   Biso      1.000     C          0.163743  
         C32       1.0000    0.81580   0.46890   0.44660   Biso      1.000     C          0.17985299999999999           
         C33       1.0000    0.85070   0.53300   0.34300   Biso      1.000     C          -0.182837           
         C34       1.0000    0.75320   0.63480   0.27280   Biso      1.000     C          0.025793  
         C35       1.0000    0.68500   0.05450   0.67970   Biso      1.000     C          -0.15223  
         C36       1.0000    0.56470   0.01490   0.71230   Biso      1.000     C          0.017123  
         Eu1       1.0000    0.73620   0.02657   0.00472   Biso      1.000     Eu          1.447492  
         Eu2       1.0000    0.26380   0.97343   0.99528   Biso      1.000     Eu          1.447491  
         H1        1.0000    0.48700   0.37910   0.55980   Biso      1.000     H          0.087288  
         H2        1.0000    0.44480   0.26640   0.73620   Biso      1.000     H          0.13276300000000002           
         H3        1.0000    0.06150   0.49170   0.67980   Biso      1.000     H          0.137114  
         H4        1.0000    0.19600   0.67440   0.34240   Biso      1.000     H          0.140248  
         H5        1.0000    0.81340   0.89770   0.29520   Biso      1.000     H          0.129157  
         H6        1.0000    0.78280   0.79960   0.47490   Biso      1.000     H          0.089775  
         H7        1.0000    0.80850   0.09550   0.55670   Biso      1.000     H          0.093507  
         H8        1.0000    0.73760   0.07000   0.72590   Biso      1.000     H          0.121678  
         H9        1.0000    0.59190   0.03360   0.33910   Biso      1.000     H          0.135714  
         H10       1.0000    0.51300   0.62090   0.44020   Biso      1.000     H          0.087289  
         H11       1.0000    0.55520   0.73360   0.26380   Biso      1.000     H          0.13276300000000002           
         H12       1.0000    0.93850   0.50830   0.32020   Biso      1.000     H          0.13711600000000002           
         H13       1.0000    0.80400   0.32560   0.65760   Biso      1.000     H          0.140249  
         H14       1.0000    0.18660   0.10230   0.70480   Biso      1.000     H          0.129158  
         H15       1.0000    0.21720   0.20040   0.52510   Biso      1.000     H          0.089775  
         H16       1.0000    0.19150   0.90450   0.44330   Biso      1.000     H          0.093507  
         H17       1.0000    0.26240   0.93000   0.27410   Biso      1.000     H          0.121679  
         H18       1.0000    0.40810   0.96640   0.66090   Biso      1.000     H          0.135713  
         N1        1.0000    0.34530   0.94680   0.49440   Biso      1.000     N          -0.27166399999999996          
         N2        1.0000    0.69210   0.50080   0.48450   Biso      1.000     N          -0.262369           
         N3        1.0000    0.04010   0.32190   0.48490   Biso      1.000     N          -0.26005500000000004          
         N4        1.0000    0.95990   0.67810   0.51510   Biso      1.000     N          -0.26005500000000004          
         N5        1.0000    0.30790   0.49920   0.51550   Biso      1.000     N          -0.262369           
         N6        1.0000    0.65470   0.05320   0.50560   Biso      1.000     N          -0.271665           
         O1        1.0000    0.60430   0.02730   0.15850   Biso      1.000     O          -0.5837060000000001           
         O2        1.0000    0.29500   0.18640   0.89310   Biso      1.000     O          -0.536089           
         O3        1.0000    0.10180   0.33600   0.87660   Biso      1.000     O          -0.360073           
         O4        1.0000    0.15660   0.84970   0.15150   Biso      1.000     O          -0.6199399999999999           
         O5        1.0000    0.93200   0.94130   0.12160   Biso      1.000     O          -0.625789           
         O6        1.0000    0.39570   0.97270   0.84150   Biso      1.000     O          -0.583704           
         O7        1.0000    0.58730   0.00760   0.88820   Biso      1.000     O          -0.630464           
         O8        1.0000    0.70500   0.81360   0.10690   Biso      1.000     O          -0.53609  
         O9        1.0000    0.89820   0.66400   0.12340   Biso      1.000     O          -0.360077           
         O10       1.0000    0.84340   0.15030   0.84850   Biso      1.000     O          -0.6199399999999999           
         O11       1.0000    0.06800   0.05870   0.87840   Biso      1.000     O          -0.625787           
         O12       1.0000    0.41270   0.99240   0.11180   Biso      1.000     O          -0.630463 