
##########################################################################
#               Crystallographic Information Format file
#               Produced by PyCifRW module
#
#  This is a CIF file.  CIF has been adopted by the International
#  Union of Crystallography as the standard for data archiving and
#  transmission.
#
#  For information on this file format, follow the CIF links at
#  http://www.iucr.org
##########################################################################

data_image0

_cell_length_a                          9.9008
_cell_length_b                          11.6556
_cell_length_c                          13.4354
_cell_angle_alpha                       66.832
_cell_angle_beta                        87.019
_cell_angle_gamma                       76.377
_symmetry_space_group_name_H-M          'P 1'
_symmetry_int_tables_number             1
loop_
  _symmetry_equiv_pos_as_xyz
         'x, y, z' 
loop_
  _atom_site_label
  _atom_site_occupancy
  _atom_site_fract_x
  _atom_site_fract_y
  _atom_site_fract_z
  _atom_site_thermal_displace_type
  _atom_site_B_iso_or_equiv
  _atom_site_type_symbol
  _atom_site_charge
         C1        1.0000    0.96030   0.98780   0.46210   Biso      1.000     C          0.174342  
         C2        1.0000    0.71010   0.28960   0.84150   Biso      1.000     C          0.606509  
         C3        1.0000    0.90020   0.39890   0.58290   Biso      1.000     C          0.091113  
         C4        1.0000    0.87560   0.33270   0.68850   Biso      1.000     C          -0.175069           
         C5        1.0000    0.74930   0.36430   0.72630   Biso      1.000     C          0.034191  
         C6        1.0000    0.64970   0.46750   0.65630   Biso      1.000     C          -0.191032           
         C7        1.0000    0.68260   0.52870   0.55360   Biso      1.000     C          0.17236600000000002           
         C8        1.0000    0.98840   0.00330   0.17740   Biso      1.000     C          0.701022  
         C9        1.0000    0.58020   0.64070   0.47520   Biso      1.000     C          0.182895  
         C10       1.0000    0.51070   0.79860   0.29810   Biso      1.000     C          -0.000529           
         C11       1.0000    0.38600   0.83490   0.33920   Biso      1.000     C          -0.16279000000000002          
         C12       1.0000    0.36620   0.77360   0.44730   Biso      1.000     C          0.08669099999999999           
         C13       1.0000    0.53510   0.86730   0.17920   Biso      1.000     C          0.717202  
         C14       1.0000    0.77220   0.92970   0.42330   Biso      1.000     C          0.09661900000000001           
         C15       1.0000    0.81410   0.94380   0.32140   Biso      1.000     C          -0.14798599999999998          
         C16       1.0000    0.60920   0.70060   0.36780   Biso      1.000     C          -0.174295           
         C17       1.0000    0.28990   0.71040   0.15850   Biso      1.000     C          0.606509  
         C18       1.0000    0.09980   0.60110   0.41710   Biso      1.000     C          0.091112  
         C19       1.0000    0.12440   0.66730   0.31150   Biso      1.000     C          -0.175069           
         C20       1.0000    0.01160   0.99670   0.82260   Biso      1.000     C          0.701021  
         C21       1.0000    0.03970   0.01220   0.53790   Biso      1.000     C          0.174344  
         C22       1.0000    0.99060   0.99470   0.64160   Biso      1.000     C          -0.17133199999999998          
         C23       1.0000    0.06460   0.01390   0.71320   Biso      1.000     C          0.004926  
         C24       1.0000    0.18590   0.05620   0.67860   Biso      1.000     C          -0.14799400000000001          
         C25       1.0000    0.22780   0.07030   0.57670   Biso      1.000     C          0.096626  
         C26       1.0000    0.46490   0.13270   0.82080   Biso      1.000     C          0.717201  
         C27       1.0000    0.63380   0.22640   0.55270   Biso      1.000     C          0.086688  
         C28       1.0000    0.61400   0.16510   0.66080   Biso      1.000     C          -0.16279100000000002          
         C29       1.0000    0.48930   0.20140   0.70190   Biso      1.000     C          -0.000525           
         C30       1.0000    0.39080   0.29940   0.63220   Biso      1.000     C          -0.174297           
         C31       1.0000    0.41980   0.35930   0.52480   Biso      1.000     C          0.182898  
         C32       1.0000    0.31740   0.47130   0.44640   Biso      1.000     C          0.172347  
         C33       1.0000    0.35030   0.53250   0.34370   Biso      1.000     C          -0.191011           
         C34       1.0000    0.25070   0.63570   0.27370   Biso      1.000     C          0.034187999999999996          
         C35       1.0000    0.93540   0.98610   0.28680   Biso      1.000     C          0.00491   
         C36       1.0000    0.00940   0.00530   0.35840   Biso      1.000     C          -0.17131500000000002          
         Gd1       1.0000    0.76372   0.97369   0.99516   Biso      1.000     Gd          2.13085   
         Gd2       1.0000    0.23628   0.02631   0.00484   Biso      1.000     Gd          2.130851  
         H1        1.0000    0.98550   0.37260   0.55660   Biso      1.000     H          0.08015499999999999           
         H2        1.0000    0.94520   0.26660   0.73400   Biso      1.000     H          0.116526  
         H3        1.0000    0.56240   0.49340   0.68020   Biso      1.000     H          0.13324   
         H4        1.0000    0.69560   0.67410   0.34320   Biso      1.000     H          0.130232  
         H5        1.0000    0.31560   0.90050   0.29430   Biso      1.000     H          0.120191  
         H6        1.0000    0.28130   0.80020   0.47410   Biso      1.000     H          0.086203  
         H7        1.0000    0.68820   0.90640   0.44370   Biso      1.000     H          0.091899  
         H8        1.0000    0.76260   0.92550   0.27600   Biso      1.000     H          0.113656  
         H9        1.0000    0.90720   0.96990   0.66110   Biso      1.000     H          0.132045  
         H10       1.0000    0.01450   0.62740   0.44340   Biso      1.000     H          0.08015499999999999           
         H11       1.0000    0.05480   0.73340   0.26600   Biso      1.000     H          0.116526  
         H12       1.0000    0.43760   0.50660   0.31980   Biso      1.000     H          0.133239  
         H13       1.0000    0.30440   0.32590   0.65680   Biso      1.000     H          0.130232  
         H14       1.0000    0.68440   0.09950   0.70570   Biso      1.000     H          0.120191  
         H15       1.0000    0.71870   0.19980   0.52590   Biso      1.000     H          0.086203  
         H16       1.0000    0.31180   0.09360   0.55630   Biso      1.000     H          0.09189800000000001           
         H17       1.0000    0.23740   0.07450   0.72400   Biso      1.000     H          0.113656  
         H18       1.0000    0.09280   0.03010   0.33890   Biso      1.000     H          0.132044  
         N1        1.0000    0.15660   0.05300   0.50490   Biso      1.000     N          -0.283237           
         N2        1.0000    0.53850   0.32160   0.48400   Biso      1.000     N          -0.279079           
         N3        1.0000    0.19200   0.50090   0.48420   Biso      1.000     N          -0.30644699999999997          
         N4        1.0000    0.80800   0.49910   0.51580   Biso      1.000     N          -0.30644899999999997          
         N5        1.0000    0.46150   0.67840   0.51600   Biso      1.000     N          -0.279079           
         N6        1.0000    0.84340   0.94700   0.49510   Biso      1.000     N          -0.283235           
         O1        1.0000    0.89440   0.97230   0.84200   Biso      1.000     O          -0.6463720000000001           
         O2        1.0000    0.60380   0.33500   0.87810   Biso      1.000     O          -0.563597           
         O3        1.0000    0.79500   0.18610   0.89260   Biso      1.000     O          -0.729425           
         O4        1.0000    0.43280   0.94100   0.12130   Biso      1.000     O          -0.732107           
         O5        1.0000    0.65750   0.85030   0.15020   Biso      1.000     O          -0.698351           
         O6        1.0000    0.10560   0.02770   0.15800   Biso      1.000     O          -0.646373           
         O7        1.0000    0.91020   0.99360   0.11110   Biso      1.000     O          -0.741222           
         O8        1.0000    0.39620   0.66500   0.12190   Biso      1.000     O          -0.5635979999999999           
         O9        1.0000    0.20500   0.81390   0.10740   Biso      1.000     O          -0.729425           
         O10       1.0000    0.56720   0.05900   0.87870   Biso      1.000     O          -0.732107           
         O11       1.0000    0.34250   0.14970   0.84980   Biso      1.000     O          -0.698351           
         O12       1.0000    0.08980   0.00640   0.88890   Biso      1.000     O          -0.741222 