
##########################################################################
#               Crystallographic Information Format file
#               Produced by PyCifRW module
#
#  This is a CIF file.  CIF has been adopted by the International
#  Union of Crystallography as the standard for data archiving and
#  transmission.
#
#  For information on this file format, follow the CIF links at
#  http://www.iucr.org
##########################################################################

data_image0

_cell_length_a                          9.964
_cell_length_b                          11.57
_cell_length_c                          13.32
_cell_angle_alpha                       67.7
_cell_angle_beta                        87.18
_cell_angle_gamma                       76.68
_symmetry_space_group_name_H-M          'P 1'
_symmetry_int_tables_number             1
loop_
  _symmetry_equiv_pos_as_xyz
         'x, y, z' 
loop_
  _atom_site_label
  _atom_site_occupancy
  _atom_site_fract_x
  _atom_site_fract_y
  _atom_site_fract_z
  _atom_site_thermal_displace_type
  _atom_site_B_iso_or_equiv
  _atom_site_type_symbol
  _atom_site_charge
         C1        1.0000    0.81450   0.44580   0.31920   Biso      1.000     C          -0.151996           
         C2        1.0000    0.63280   0.72610   0.55170   Biso      1.000     C          0.08173899999999999           
         C3        1.0000    0.46570   0.63170   0.82010   Biso      1.000     C          0.7121390000000001  
         C4        1.0000    0.96080   0.48990   0.45930   Biso      1.000     C          0.174094  
         C5        1.0000    0.00830   0.50630   0.35870   Biso      1.000     C          -0.17457  
         C6        1.0000    0.93450   0.48590   0.28610   Biso      1.000     C          0.008655  
         C7        1.0000    0.77270   0.43040   0.42390   Biso      1.000     C          0.100051  
         C8        1.0000    0.71190   0.79040   0.84110   Biso      1.000     C          0.6020409999999999  
         C9        1.0000    0.90180   0.89960   0.58270   Biso      1.000     C          0.084815  
         C10       1.0000    0.87600   0.83150   0.68910   Biso      1.000     C          -0.172414           
         C11       1.0000    0.74770   0.86480   0.72680   Biso      1.000     C          0.032372000000000005          
         C12       1.0000    0.65040   0.96680   0.65660   Biso      1.000     C          -0.184058           
         C13       1.0000    0.61490   0.66410   0.66090   Biso      1.000     C          -0.158903           
         C14       1.0000    0.68570   0.03150   0.55310   Biso      1.000     C          0.173959  
         C15       1.0000    0.61050   0.20020   0.36690   Biso      1.000     C          -0.170999           
         C16       1.0000    0.51150   0.29850   0.29850   Biso      1.000     C          0.001425  
         C17       1.0000    0.38510   0.33590   0.33910   Biso      1.000     C          -0.158905           
         C18       1.0000    0.36720   0.27390   0.44830   Biso      1.000     C          0.081741  
         C19       1.0000    0.53430   0.36830   0.17990   Biso      1.000     C          0.7121390000000001  
         C20       1.0000    0.01360   0.49690   0.82420   Biso      1.000     C          0.7070649999999999  
         C21       1.0000    0.03920   0.51010   0.54070   Biso      1.000     C          0.174094  
         C22       1.0000    0.99170   0.49370   0.64130   Biso      1.000     C          -0.174569           
         C23       1.0000    0.06550   0.51410   0.71390   Biso      1.000     C          0.008653000000000001          
         C24       1.0000    0.18550   0.55420   0.68080   Biso      1.000     C          -0.15199400000000002          
         C25       1.0000    0.22730   0.56960   0.57610   Biso      1.000     C          0.100051  
         C26       1.0000    0.58390   0.14020   0.47580   Biso      1.000     C          0.18237799999999998           
         C27       1.0000    0.48850   0.70150   0.70150   Biso      1.000     C          0.0014199999999999998         
         C28       1.0000    0.98640   0.50310   0.17580   Biso      1.000     C          0.707064  
         C29       1.0000    0.41610   0.85980   0.52420   Biso      1.000     C          0.182377  
         C30       1.0000    0.31430   0.96850   0.44690   Biso      1.000     C          0.173953  
         C31       1.0000    0.34960   0.03320   0.34340   Biso      1.000     C          -0.184051           
         C32       1.0000    0.25230   0.13520   0.27320   Biso      1.000     C          0.032369  
         C33       1.0000    0.12400   0.16850   0.31090   Biso      1.000     C          -0.172413           
         C34       1.0000    0.09820   0.10040   0.41730   Biso      1.000     C          0.08481699999999999           
         C35       1.0000    0.28810   0.20960   0.15890   Biso      1.000     C          0.6020399999999999  
         C36       1.0000    0.38950   0.79980   0.63310   Biso      1.000     C          -0.170993           
         H1        1.0000    0.76210   0.42930   0.27250   Biso      1.000     H          0.111851  
         H2        1.0000    0.09110   0.53140   0.33930   Biso      1.000     H          0.132998  
         H3        1.0000    0.71560   0.69900   0.52300   Biso      1.000     H          0.089767  
         H4        1.0000    0.05610   0.23540   0.26570   Biso      1.000     H          0.117355  
         H5        1.0000    0.30470   0.82630   0.65940   Biso      1.000     H          0.13273   
         H6        1.0000    0.43750   0.00920   0.32030   Biso      1.000     H          0.133356  
         H7        1.0000    0.01220   0.12440   0.44320   Biso      1.000     H          0.082195  
         H8        1.0000    0.68510   0.59960   0.70560   Biso      1.000     H          0.125615  
         H9        1.0000    0.98780   0.87560   0.55680   Biso      1.000     H          0.082195  
         H10       1.0000    0.69000   0.40560   0.44480   Biso      1.000     H          0.092646  
         H11       1.0000    0.56250   0.99080   0.67970   Biso      1.000     H          0.133356  
         H12       1.0000    0.69530   0.17370   0.34060   Biso      1.000     H          0.13273   
         H13       1.0000    0.31490   0.40040   0.29440   Biso      1.000     H          0.125615  
         H14       1.0000    0.28440   0.30100   0.47700   Biso      1.000     H          0.089767  
         H15       1.0000    0.90890   0.46860   0.66070   Biso      1.000     H          0.132998  
         H16       1.0000    0.23790   0.57070   0.72750   Biso      1.000     H          0.111851  
         H17       1.0000    0.31000   0.59440   0.55520   Biso      1.000     H          0.092646  
         H18       1.0000    0.94390   0.76460   0.73430   Biso      1.000     H          0.117355  
         N1        1.0000    0.19120   0.00160   0.48500   Biso      1.000     N          -0.305919           
         N2        1.0000    0.53690   0.82360   0.48430   Biso      1.000     N          -0.282359           
         N3        1.0000    0.84330   0.44860   0.49450   Biso      1.000     N          -0.283817           
         N4        1.0000    0.80880   0.99840   0.51500   Biso      1.000     N          -0.305919           
         N5        1.0000    0.46310   0.17640   0.51570   Biso      1.000     N          -0.282359           
         N6        1.0000    0.15670   0.55140   0.50550   Biso      1.000     N          -0.283817           
         O1        1.0000    0.79580   0.68540   0.89340   Biso      1.000     O          -0.741016           
         O2        1.0000    0.60350   0.83570   0.87670   Biso      1.000     O          -0.562117           
         O3        1.0000    0.43070   0.44190   0.12110   Biso      1.000     O          -0.7568159999999999           
         O4        1.0000    0.65600   0.35230   0.14950   Biso      1.000     O          -0.713158           
         O5        1.0000    0.90990   0.49450   0.10960   Biso      1.000     O          -0.745935           
         O6        1.0000    0.10480   0.52570   0.15700   Biso      1.000     O          -0.671871           
         O7        1.0000    0.09010   0.50550   0.89040   Biso      1.000     O          -0.745935           
         O8        1.0000    0.34400   0.64770   0.85050   Biso      1.000     O          -0.713158           
         O9        1.0000    0.39650   0.16430   0.12330   Biso      1.000     O          -0.562117           
         O10       1.0000    0.20420   0.31460   0.10660   Biso      1.000     O          -0.741015           
         O11       1.0000    0.89520   0.47430   0.84300   Biso      1.000     O          -0.671871           
         O12       1.0000    0.56930   0.55810   0.87890   Biso      1.000     O          -0.7568159999999999           
         Tb1       1.0000    0.23663   0.52593   0.00502   Biso      1.000     Tb          2.196702  
         Tb2       1.0000    0.76337   0.47407   0.99498   Biso      1.000     Tb          2.196702 