
##########################################################################
#               Crystallographic Information Format file
#               Produced by PyCifRW module
#
#  This is a CIF file.  CIF has been adopted by the International
#  Union of Crystallography as the standard for data archiving and
#  transmission.
#
#  For information on this file format, follow the CIF links at
#  http://www.iucr.org
##########################################################################

data_image0

_cell_length_a                          8.118
_cell_length_b                          11.568
_cell_length_c                          14.244
_cell_angle_alpha                       94.64
_cell_angle_beta                        97.44
_cell_angle_gamma                       103
_symmetry_space_group_name_H-M          'P 1'
_symmetry_int_tables_number             1
loop_
  _symmetry_equiv_pos_as_xyz
         'x, y, z' 
loop_
  _atom_site_label
  _atom_site_occupancy
  _atom_site_fract_x
  _atom_site_fract_y
  _atom_site_fract_z
  _atom_site_thermal_displace_type
  _atom_site_B_iso_or_equiv
  _atom_site_type_symbol
  _atom_site_charge
         C1        1.0000    0.62700   0.81200   0.93500   Biso      1.000     C          -0.382203           
         C2        1.0000    0.62900   0.00000   0.87100   Biso      1.000     C          -0.37708200000000003          
         C3        1.0000    0.56500   0.84500   0.60800   Biso      1.000     C          0.338098  
         C4        1.0000    0.93300   0.99900   0.18460   Biso      1.000     C          0.06616   
         C5        1.0000    0.98600   0.80000   0.09900   Biso      1.000     C          0.06664199999999999           
         C6        1.0000    0.81400   0.66500   0.21100   Biso      1.000     C          0.087008  
         C7        1.0000    0.73800   0.86300   0.29320   Biso      1.000     C          0.031439999999999996          
         C8        1.0000    0.10100   0.85700   0.29800   Biso      1.000     C          0.043868  
         C9        1.0000    0.61400   0.16400   0.15700   Biso      1.000     C          0.314544  
         C10       1.0000    0.37100   0.00000   0.12900   Biso      1.000     C          -0.37708200000000003          
         C11       1.0000    0.37300   0.18800   0.06500   Biso      1.000     C          -0.382203           
         C12       1.0000    0.57900   0.34200   0.48600   Biso      1.000     C          -0.386191           
         C13       1.0000    0.38600   0.34000   0.33200   Biso      1.000     C          -0.38709  
         C14       1.0000    0.14400   0.45800   0.10600   Biso      1.000     C          0.305214  
         C15       1.0000    0.27600   0.61200   0.22300   Biso      1.000     C          -0.372759           
         C16       1.0000    0.43500   0.15500   0.39200   Biso      1.000     C          0.338096  
         C17       1.0000    0.06700   0.00100   0.81540   Biso      1.000     C          0.066162  
         C18       1.0000    0.63700   0.38000   0.92600   Biso      1.000     C          -0.384046           
         C19       1.0000    0.72400   0.38800   0.77700   Biso      1.000     C          -0.372758           
         C20       1.0000    0.36300   0.62000   0.07400   Biso      1.000     C          -0.384046           
         C21       1.0000    0.61400   0.66000   0.66800   Biso      1.000     C          -0.38709  
         C22       1.0000    0.42100   0.65800   0.51400   Biso      1.000     C          -0.38619000000000003          
         C23       1.0000    0.85600   0.54200   0.89400   Biso      1.000     C          0.305214  
         C24       1.0000    0.89900   0.14300   0.70200   Biso      1.000     C          0.043864  
         C25       1.0000    0.26200   0.13700   0.70680   Biso      1.000     C          0.031439  
         C26       1.0000    0.18600   0.33500   0.78900   Biso      1.000     C          0.087011  
         C27       1.0000    0.01400   0.20000   0.90100   Biso      1.000     C          0.06664400000000001           
         C28       1.0000    0.38600   0.83600   0.84300   Biso      1.000     C          0.31454499999999996           
         Co1       1.0000    0.11310   0.16710   0.79430   Biso      1.000     Co          0.040254000000000005          
         Co2       1.0000    0.88690   0.83290   0.20570   Biso      1.000     Co          0.040249  
         H1        1.0000    0.73490   0.68400   0.67370   Biso      1.000     H          0.161138  
         H2        1.0000    0.70640   0.35730   0.97680   Biso      1.000     H          0.151148  
         H3        1.0000    0.56980   0.42910   0.95170   Biso      1.000     H          0.152653  
         H4        1.0000    0.69710   0.43910   0.73150   Biso      1.000     H          0.14314200000000002           
         H5        1.0000    0.82760   0.36690   0.76740   Biso      1.000     H          0.161478  
         H6        1.0000    0.63430   0.31820   0.77070   Biso      1.000     H          0.163428  
         H7        1.0000    0.86460   0.57780   0.95750   Biso      1.000     H          0.066777  
         H8        1.0000    0.57700   0.57670   0.64820   Biso      1.000     H          0.155934  
         H9        1.0000    0.58050   0.67630   0.72870   Biso      1.000     H          0.14793599999999998           
         H10       1.0000    0.56420   0.31140   0.88950   Biso      1.000     H          0.162822  
         H11       1.0000    0.46650   0.67950   0.45820   Biso      1.000     H          0.163663  
         H12       1.0000    0.66490   0.11220   0.19340   Biso      1.000     H          0.051884000000000007          
         H13       1.0000    0.36900   0.99230   0.19490   Biso      1.000     H          0.156467  
         H14       1.0000    0.25740   0.98290   0.09630   Biso      1.000     H          0.173851  
         H15       1.0000    0.43100   0.94670   0.10340   Biso      1.000     H          0.15099300000000002           
         H16       1.0000    0.42970   0.20670   0.01150   Biso      1.000     H          0.143643  
         H17       1.0000    0.25850   0.14540   0.04310   Biso      1.000     H          0.162852  
         H18       1.0000    0.37370   0.26050   0.10200   Biso      1.000     H          0.142395  
         H19       1.0000    0.36100   0.11320   0.33610   Biso      1.000     H          0.05700499999999999           
         H20       1.0000    0.58680   0.42500   0.48180   Biso      1.000     H          0.148515  
         H21       1.0000    0.53350   0.32050   0.54180   Biso      1.000     H          0.16366   
         H22       1.0000    0.68900   0.32680   0.48790   Biso      1.000     H          0.163769  
         H23       1.0000    0.41950   0.32370   0.27130   Biso      1.000     H          0.14793499999999998           
         H24       1.0000    0.26510   0.31600   0.32630   Biso      1.000     H          0.161134  
         H25       1.0000    0.42300   0.42330   0.35180   Biso      1.000     H          0.155932  
         H26       1.0000    0.13540   0.42220   0.04250   Biso      1.000     H          0.066777  
         H27       1.0000    0.36570   0.68180   0.22930   Biso      1.000     H          0.163428  
         H28       1.0000    0.17240   0.63310   0.23260   Biso      1.000     H          0.161478  
         H29       1.0000    0.30290   0.56090   0.26850   Biso      1.000     H          0.14314200000000002           
         H30       1.0000    0.43020   0.57090   0.04830   Biso      1.000     H          0.152653  
         H31       1.0000    0.29360   0.64270   0.02320   Biso      1.000     H          0.151148  
         H32       1.0000    0.43580   0.68860   0.11050   Biso      1.000     H          0.162823  
         H33       1.0000    0.33510   0.88780   0.80660   Biso      1.000     H          0.051885  
         H34       1.0000    0.63100   0.00770   0.80510   Biso      1.000     H          0.156467  
         H35       1.0000    0.74260   0.01710   0.90370   Biso      1.000     H          0.173851  
         H36       1.0000    0.56900   0.05330   0.89660   Biso      1.000     H          0.15099500000000002           
         H37       1.0000    0.57030   0.79330   0.98850   Biso      1.000     H          0.143645  
         H38       1.0000    0.74150   0.85460   0.95690   Biso      1.000     H          0.162853  
         H39       1.0000    0.63900   0.88680   0.66390   Biso      1.000     H          0.057005999999999994          
         H40       1.0000    0.41320   0.57500   0.51820   Biso      1.000     H          0.148516  
         H41       1.0000    0.31100   0.67320   0.51210   Biso      1.000     H          0.163773  
         H42       1.0000    0.62630   0.73950   0.89800   Biso      1.000     H          0.142395  
         Li1       1.0000    0.46100   0.92100   0.41400   Biso      1.000     Li          0.768059  
         Li2       1.0000    0.06900   0.76100   0.89400   Biso      1.000     Li          0.767824  
         Li3       1.0000    0.15800   0.58700   0.77200   Biso      1.000     Li          0.8430719999999999  
         Li4       1.0000    0.53900   0.07900   0.58600   Biso      1.000     Li          0.768055  
         Li5       1.0000    0.93100   0.23900   0.10600   Biso      1.000     Li          0.767822  
         Li6       1.0000    0.84200   0.41300   0.22800   Biso      1.000     Li          0.8430639999999999  
         N1        1.0000    0.74400   0.44700   0.86670   Biso      1.000     N          0.14411500000000002           
         N2        1.0000    0.53400   0.72700   0.59740   Biso      1.000     N          0.039233  
         N3        1.0000    0.54400   0.87900   0.88100   Biso      1.000     N          0.103774  
         N4        1.0000    0.77200   0.13200   0.65370   Biso      1.000     N          -0.543479           
         N5        1.0000    0.35700   0.11900   0.65650   Biso      1.000     N          -0.5157010000000001           
         N6        1.0000    0.22800   0.43600   0.78660   Biso      1.000     N          -0.603009           
         N7        1.0000    0.96100   0.22200   0.97060   Biso      1.000     N          -0.549701           
         N8        1.0000    0.03400   0.90200   0.83050   Biso      1.000     N          -0.5448850000000001           
         N9        1.0000    0.46600   0.27300   0.40260   Biso      1.000     N          0.039233  
         N10       1.0000    0.45600   0.12100   0.11900   Biso      1.000     N          0.103773  
         N11       1.0000    0.22800   0.86800   0.34630   Biso      1.000     N          -0.543479           
         N12       1.0000    0.64300   0.88100   0.34350   Biso      1.000     N          -0.515699           
         N13       1.0000    0.77200   0.56400   0.21340   Biso      1.000     N          -0.603004           
         N14       1.0000    0.03900   0.77800   0.02940   Biso      1.000     N          -0.549697           
         N15       1.0000    0.96600   0.09800   0.16950   Biso      1.000     N          -0.54488  
         N16       1.0000    0.25600   0.55300   0.13330   Biso      1.000     N          0.14411500000000002           
         O1        1.0000    0.50600   0.90280   0.55150   Biso      1.000     O          -0.556793           
         O2        1.0000    0.70700   0.26240   0.15270   Biso      1.000     O          -0.6426930000000001           
         O3        1.0000    0.49400   0.09720   0.44850   Biso      1.000     O          -0.556796           
         O4        1.0000    0.04000   0.40600   0.16150   Biso      1.000     O          -0.6951649999999999           
         O5        1.0000    0.29300   0.73760   0.84730   Biso      1.000     O          -0.6426930000000001           
         O6        1.0000    0.96000   0.59400   0.83850   Biso      1.000     O          -0.695168 