
##########################################################################
#               Crystallographic Information Format file
#               Produced by PyCifRW module
#
#  This is a CIF file.  CIF has been adopted by the International
#  Union of Crystallography as the standard for data archiving and
#  transmission.
#
#  For information on this file format, follow the CIF links at
#  http://www.iucr.org
##########################################################################

data_image0

_cell_length_a                          10.9902
_cell_length_b                          10.9902
_cell_length_c                          18.094
_cell_angle_alpha                       90
_cell_angle_beta                        90
_cell_angle_gamma                       90
_symmetry_space_group_name_H-M          'P 1'
_symmetry_int_tables_number             1
loop_
  _symmetry_equiv_pos_as_xyz
         'x, y, z' 
loop_
  _atom_site_label
  _atom_site_occupancy
  _atom_site_fract_x
  _atom_site_fract_y
  _atom_site_fract_z
  _atom_site_thermal_displace_type
  _atom_site_B_iso_or_equiv
  _atom_site_type_symbol
  _atom_site_charge
         C1        1.0000    0.21770   0.71540   0.30440   Biso      1.000     C          0.586734  
         C2        1.0000    0.71310   0.20760   0.75440   Biso      1.000     C          -0.30346599999999996          
         C3        1.0000    0.73940   0.09540   0.72480   Biso      1.000     C          0.31749   
         C4        1.0000    0.59380   0.23250   0.73090   Biso      1.000     C          0.295236  
         C5        1.0000    0.84930   0.02210   0.72720   Biso      1.000     C          -0.5368609999999999           
         C6        1.0000    0.51500   0.34450   0.74520   Biso      1.000     C          -0.543276           
         C7        1.0000    0.23640   0.73160   0.81630   Biso      1.000     C          0.598507  
         C8        1.0000    0.29830   0.81110   0.76540   Biso      1.000     C          -0.31396599999999997          
         C9        1.0000    0.41430   0.78320   0.73160   Biso      1.000     C          0.29065599999999997           
         C10       1.0000    0.27270   0.92780   0.74110   Biso      1.000     C          0.313188  
         C11       1.0000    0.78230   0.28460   0.80440   Biso      1.000     C          0.5864149999999999  
         C12       1.0000    0.49010   0.66880   0.73860   Biso      1.000     C          -0.542295           
         C13       1.0000    0.28690   0.79240   0.25440   Biso      1.000     C          -0.303553           
         C14       1.0000    0.26060   0.90460   0.22480   Biso      1.000     C          0.318754  
         C15       1.0000    0.40620   0.76750   0.23090   Biso      1.000     C          0.29609   
         C16       1.0000    0.15070   0.97790   0.22720   Biso      1.000     C          -0.537251           
         C17       1.0000    0.48500   0.65550   0.24520   Biso      1.000     C          -0.543903           
         C18       1.0000    0.76360   0.26840   0.31630   Biso      1.000     C          0.598597  
         C19       1.0000    0.70170   0.18890   0.26540   Biso      1.000     C          -0.314117           
         C20       1.0000    0.58570   0.21680   0.23160   Biso      1.000     C          0.291593  
         C21       1.0000    0.72730   0.07220   0.24110   Biso      1.000     C          0.31440100000000004           
         C22       1.0000    0.16870   0.00650   0.76060   Biso      1.000     C          -0.532404           
         C23       1.0000    0.00650   0.83130   0.01060   Biso      1.000     C          -0.5324399999999999           
         C24       1.0000    0.66880   0.50990   0.98860   Biso      1.000     C          -0.542347           
         C25       1.0000    0.92780   0.72730   0.99110   Biso      1.000     C          0.313263  
         C26       1.0000    0.71540   0.78230   0.55440   Biso      1.000     C          0.586232  
         C27       1.0000    0.79240   0.71310   0.50440   Biso      1.000     C          -0.303793           
         C28       1.0000    0.90460   0.73940   0.47480   Biso      1.000     C          0.318916  
         C29       1.0000    0.76750   0.59380   0.48090   Biso      1.000     C          0.296223  
         C30       1.0000    0.97790   0.84930   0.47720   Biso      1.000     C          -0.537257           
         C31       1.0000    0.65550   0.51500   0.49520   Biso      1.000     C          -0.5439649999999999           
         C32       1.0000    0.26840   0.23640   0.56630   Biso      1.000     C          0.598321  
         C33       1.0000    0.18890   0.29830   0.51540   Biso      1.000     C          -0.314135           
         C34       1.0000    0.21680   0.41430   0.48160   Biso      1.000     C          0.291786  
         C35       1.0000    0.07220   0.27270   0.49110   Biso      1.000     C          0.31445700000000004           
         C36       1.0000    0.33120   0.49010   0.48860   Biso      1.000     C          -0.542805           
         C37       1.0000    0.99350   0.16870   0.51060   Biso      1.000     C          -0.5328609999999999           
         C38       1.0000    0.28460   0.21770   0.05440   Biso      1.000     C          0.586819  
         C39       1.0000    0.20760   0.28690   0.00440   Biso      1.000     C          -0.30333499999999997          
         C40       1.0000    0.09540   0.26060   0.97480   Biso      1.000     C          0.317467  
         C41       1.0000    0.23250   0.40620   0.98090   Biso      1.000     C          0.295184  
         C42       1.0000    0.02210   0.15070   0.97720   Biso      1.000     C          -0.536844           
         C43       1.0000    0.34450   0.48500   0.99520   Biso      1.000     C          -0.543255           
         C44       1.0000    0.73160   0.76360   0.06630   Biso      1.000     C          0.5985560000000001  
         C45       1.0000    0.81110   0.70170   0.01540   Biso      1.000     C          -0.31403600000000004          
         C46       1.0000    0.78320   0.58570   0.98160   Biso      1.000     C          0.290693  
         C47       1.0000    0.50990   0.33120   0.23860   Biso      1.000     C          -0.5428649999999999           
         C48       1.0000    0.83130   0.99350   0.26060   Biso      1.000     C          -0.532787           
         Cu1       1.0000    0.60776   0.88410   0.14366   Biso      1.000     Cu          0.664339  
         Cu2       1.0000    0.39909   0.09325   0.13475   Biso      1.000     Cu          0.657193  
         Cu3       1.0000    0.39224   0.11590   0.64366   Biso      1.000     Cu          0.668367  
         Cu4       1.0000    0.60091   0.90675   0.63475   Biso      1.000     Cu          0.660708  
         Cu5       1.0000    0.11590   0.60776   0.89366   Biso      1.000     Cu          0.6683680000000001  
         Cu6       1.0000    0.90675   0.39909   0.88475   Biso      1.000     Cu          0.660654  
         Cu7       1.0000    0.88410   0.39224   0.39366   Biso      1.000     Cu          0.6659109999999999  
         Cu8       1.0000    0.09325   0.60091   0.38475   Biso      1.000     Cu          0.655759  
         H1        1.0000    0.30960   0.57300   0.49900   Biso      1.000     H          0.17358099999999999           
         H2        1.0000    0.15790   0.04410   0.19290   Biso      1.000     H          0.17177   
         H3        1.0000    0.18120   0.04040   0.80890   Biso      1.000     H          0.185134  
         H4        1.0000    0.16200   0.07100   0.72510   Biso      1.000     H          0.169181  
         H5        1.0000    0.57300   0.69040   0.74900   Biso      1.000     H          0.173428  
         H6        1.0000    0.45880   0.61960   0.77810   Biso      1.000     H          0.17898599999999998           
         H7        1.0000    0.48650   0.62390   0.69320   Biso      1.000     H          0.180371  
         H8        1.0000    0.13980   0.00960   0.27620   Biso      1.000     H          0.183799  
         H9        1.0000    0.09520   0.95920   0.76040   Biso      1.000     H          0.184563  
         H10       1.0000    0.08200   0.92850   0.21420   Biso      1.000     H          0.18448699999999998           
         H11       1.0000    0.42700   0.30960   0.24900   Biso      1.000     H          0.173486  
         H12       1.0000    0.48840   0.60660   0.20130   Biso      1.000     H          0.18049500000000002           
         H13       1.0000    0.45040   0.60880   0.28480   Biso      1.000     H          0.17638399999999999           
         H14       1.0000    0.54960   0.39120   0.78480   Biso      1.000     H          0.176549  
         H15       1.0000    0.37610   0.48650   0.44320   Biso      1.000     H          0.180725  
         H16       1.0000    0.54120   0.38040   0.27810   Biso      1.000     H          0.178896  
         H17       1.0000    0.90480   0.04080   0.26040   Biso      1.000     H          0.18469000000000002           
         H18       1.0000    0.83800   0.92900   0.22510   Biso      1.000     H          0.16959100000000002           
         H19       1.0000    0.81880   0.95960   0.30890   Biso      1.000     H          0.185014  
         H20       1.0000    0.56570   0.68080   0.25850   Biso      1.000     H          0.171678  
         H21       1.0000    0.51160   0.39340   0.70130   Biso      1.000     H          0.180257  
         H22       1.0000    0.51350   0.37610   0.19320   Biso      1.000     H          0.18069200000000002           
         H23       1.0000    0.91800   0.07150   0.71420   Biso      1.000     H          0.184333  
         H24       1.0000    0.43430   0.31920   0.75850   Biso      1.000     H          0.171776  
         H25       1.0000    0.60880   0.54960   0.53480   Biso      1.000     H          0.176474  
         H26       1.0000    0.60660   0.51160   0.45130   Biso      1.000     H          0.180585  
         H27       1.0000    0.68080   0.43430   0.50850   Biso      1.000     H          0.171811  
         H28       1.0000    0.92850   0.91800   0.46420   Biso      1.000     H          0.18445899999999998           
         H29       1.0000    0.00960   0.86020   0.52620   Biso      1.000     H          0.183881  
         H30       1.0000    0.04410   0.84210   0.44290   Biso      1.000     H          0.171979  
         H31       1.0000    0.38040   0.45880   0.52810   Biso      1.000     H          0.17891700000000002           
         H32       1.0000    0.04080   0.09520   0.51040   Biso      1.000     H          0.18469100000000002           
         H33       1.0000    0.92900   0.16200   0.47510   Biso      1.000     H          0.169569  
         H34       1.0000    0.95590   0.15790   0.94290   Biso      1.000     H          0.17139100000000002           
         H35       1.0000    0.99040   0.13980   0.02620   Biso      1.000     H          0.183819  
         H36       1.0000    0.95960   0.18120   0.55890   Biso      1.000     H          0.185136  
         H37       1.0000    0.31920   0.56570   0.00850   Biso      1.000     H          0.171688  
         H38       1.0000    0.86020   0.99040   0.77620   Biso      1.000     H          0.183866  
         H39       1.0000    0.84210   0.95590   0.69290   Biso      1.000     H          0.17147300000000001           
         H40       1.0000    0.04040   0.81880   0.05890   Biso      1.000     H          0.185066  
         H41       1.0000    0.07150   0.08200   0.96420   Biso      1.000     H          0.184357  
         H42       1.0000    0.95920   0.90480   0.01040   Biso      1.000     H          0.1846    
         H43       1.0000    0.61960   0.54120   0.02810   Biso      1.000     H          0.178971  
         H44       1.0000    0.07100   0.83800   0.97510   Biso      1.000     H          0.16913399999999998           
         H45       1.0000    0.69040   0.42700   0.99900   Biso      1.000     H          0.17335699999999998           
         H46       1.0000    0.39120   0.45040   0.03480   Biso      1.000     H          0.176541  
         H47       1.0000    0.39340   0.48840   0.95130   Biso      1.000     H          0.18021700000000002           
         H48       1.0000    0.62390   0.51350   0.94320   Biso      1.000     H          0.180347  
         N1        1.0000    0.93800   0.63990   0.43380   Biso      1.000     N          -0.299264           
         N2        1.0000    0.87470   0.54540   0.94380   Biso      1.000     N          -0.24891799999999997          
         N3        1.0000    0.85400   0.54620   0.44270   Biso      1.000     N          -0.24607300000000001          
         N4        1.0000    0.12530   0.45460   0.44380   Biso      1.000     N          -0.246942           
         N5        1.0000    0.03790   0.36530   0.44700   Biso      1.000     N          -0.28347100000000003          
         N6        1.0000    0.06200   0.36010   0.93380   Biso      1.000     N          -0.301041           
         N7        1.0000    0.14600   0.45380   0.94270   Biso      1.000     N          -0.247856           
         N8        1.0000    0.96210   0.63470   0.94700   Biso      1.000     N          -0.28489200000000003          
         N9        1.0000    0.45380   0.85400   0.19270   Biso      1.000     N          -0.246234           
         N10       1.0000    0.54620   0.14600   0.69270   Biso      1.000     N          -0.24775500000000003          
         N11       1.0000    0.45460   0.87470   0.69380   Biso      1.000     N          -0.24909099999999998          
         N12       1.0000    0.36530   0.96210   0.69700   Biso      1.000     N          -0.285094           
         N13       1.0000    0.36010   0.93800   0.18380   Biso      1.000     N          -0.299537           
         N14       1.0000    0.54540   0.12530   0.19380   Biso      1.000     N          -0.24726199999999998          
         N15       1.0000    0.63470   0.03790   0.19700   Biso      1.000     N          -0.28333600000000003          
         N16       1.0000    0.63990   0.06200   0.68380   Biso      1.000     N          -0.300902           
         O1        1.0000    0.36870   0.26860   0.58710   Biso      1.000     O          -0.482872           
         O2        1.0000    0.22880   0.13260   0.59210   Biso      1.000     O          -0.530628           
         O3        1.0000    0.24430   0.10930   0.07270   Biso      1.000     O          -0.521992           
         O4        1.0000    0.38210   0.24900   0.08200   Biso      1.000     O          -0.48164300000000004          
         O5        1.0000    0.63130   0.73140   0.08710   Biso      1.000     O          -0.48393  
         O6        1.0000    0.77120   0.86740   0.09210   Biso      1.000     O          -0.53242  
         O7        1.0000    0.89070   0.24430   0.82270   Biso      1.000     O          -0.520035           
         O8        1.0000    0.13260   0.77120   0.84210   Biso      1.000     O          -0.5310560000000001           
         O9        1.0000    0.26860   0.63130   0.83710   Biso      1.000     O          -0.483058           
         O10       1.0000    0.10930   0.75570   0.32270   Biso      1.000     O          -0.5227470000000001           
         O11       1.0000    0.24900   0.61790   0.33200   Biso      1.000     O          -0.48161000000000004          
         O12       1.0000    0.73140   0.36870   0.33710   Biso      1.000     O          -0.48351099999999997          
         O13       1.0000    0.86740   0.22880   0.34210   Biso      1.000     O          -0.532377           
         O14       1.0000    0.61790   0.75100   0.58200   Biso      1.000     O          -0.479645           
         O15       1.0000    0.75100   0.38210   0.83200   Biso      1.000     O          -0.48014399999999996          
         O16       1.0000    0.75570   0.89070   0.57270   Biso      1.000     O          -0.519925 