
##########################################################################
#               Crystallographic Information Format file
#               Produced by PyCifRW module
#
#  This is a CIF file.  CIF has been adopted by the International
#  Union of Crystallography as the standard for data archiving and
#  transmission.
#
#  For information on this file format, follow the CIF links at
#  http://www.iucr.org
##########################################################################

data_image0

_cell_length_a                          10.9931
_cell_length_b                          10.9931
_cell_length_c                          18.085
_cell_angle_alpha                       90
_cell_angle_beta                        90
_cell_angle_gamma                       90
_symmetry_space_group_name_H-M          'P 1'
_symmetry_int_tables_number             1
loop_
  _symmetry_equiv_pos_as_xyz
         'x, y, z' 
loop_
  _atom_site_label
  _atom_site_occupancy
  _atom_site_fract_x
  _atom_site_fract_y
  _atom_site_fract_z
  _atom_site_thermal_displace_type
  _atom_site_B_iso_or_equiv
  _atom_site_type_symbol
  _atom_site_charge
         C1        1.0000    0.76660   0.26560   0.68260   Biso      1.000     C          0.5980880000000001  
         C2        1.0000    0.30680   0.80490   0.23390   Biso      1.000     C          -0.31283099999999997          
         C3        1.0000    0.28410   0.91280   0.26860   Biso      1.000     C          0.308218  
         C4        1.0000    0.42800   0.77310   0.25790   Biso      1.000     C          0.296157  
         C5        1.0000    0.16770   0.99010   0.26100   Biso      1.000     C          -0.545665           
         C6        1.0000    0.50900   0.67140   0.23890   Biso      1.000     C          -0.5268109999999999           
         C7        1.0000    0.78410   0.28460   0.19620   Biso      1.000     C          0.586133  
         C8        1.0000    0.71320   0.20850   0.24550   Biso      1.000     C          -0.306454           
         C9        1.0000    0.59550   0.24200   0.27520   Biso      1.000     C          0.304162  
         C10       1.0000    0.73270   0.09370   0.26980   Biso      1.000     C          0.303033  
         C11       1.0000    0.23340   0.73440   0.18260   Biso      1.000     C          0.5980880000000001  
         C12       1.0000    0.52520   0.34960   0.27500   Biso      1.000     C          -0.546773           
         C13       1.0000    0.69320   0.19510   0.73390   Biso      1.000     C          -0.31283099999999997          
         C14       1.0000    0.71590   0.08720   0.76860   Biso      1.000     C          0.308217  
         C15       1.0000    0.57200   0.22690   0.75790   Biso      1.000     C          0.296157  
         C16       1.0000    0.83230   0.00990   0.76100   Biso      1.000     C          -0.545665           
         C17       1.0000    0.49100   0.32860   0.73890   Biso      1.000     C          -0.5268109999999999           
         C18       1.0000    0.21590   0.71540   0.69620   Biso      1.000     C          0.5861350000000001  
         C19       1.0000    0.28680   0.79150   0.74550   Biso      1.000     C          -0.306454           
         C20       1.0000    0.40450   0.75800   0.77520   Biso      1.000     C          0.304162  
         C21       1.0000    0.26730   0.90630   0.76980   Biso      1.000     C          0.303034  
         C22       1.0000    0.84590   0.01510   0.25420   Biso      1.000     C          -0.543239           
         C23       1.0000    0.01510   0.15410   0.50420   Biso      1.000     C          -0.543238           
         C24       1.0000    0.34960   0.47480   0.52500   Biso      1.000     C          -0.546772           
         C25       1.0000    0.09370   0.26730   0.51980   Biso      1.000     C          0.303021  
         C26       1.0000    0.26560   0.23340   0.93260   Biso      1.000     C          0.598089  
         C27       1.0000    0.19510   0.30680   0.98390   Biso      1.000     C          -0.31283099999999997          
         C28       1.0000    0.08720   0.28410   0.01860   Biso      1.000     C          0.308217  
         C29       1.0000    0.22690   0.42800   0.00790   Biso      1.000     C          0.296157  
         C30       1.0000    0.00990   0.16770   0.01100   Biso      1.000     C          -0.545664           
         C31       1.0000    0.32860   0.50900   0.98890   Biso      1.000     C          -0.52681  
         C32       1.0000    0.71540   0.78410   0.94620   Biso      1.000     C          0.586133  
         C33       1.0000    0.79150   0.71320   0.99550   Biso      1.000     C          -0.306454           
         C34       1.0000    0.75800   0.59550   0.02520   Biso      1.000     C          0.304162  
         C35       1.0000    0.90630   0.73270   0.01980   Biso      1.000     C          0.303034  
         C36       1.0000    0.65040   0.52520   0.02500   Biso      1.000     C          -0.546772           
         C37       1.0000    0.98490   0.84590   0.00420   Biso      1.000     C          -0.543239           
         C38       1.0000    0.73440   0.76660   0.43260   Biso      1.000     C          0.598087  
         C39       1.0000    0.80490   0.69320   0.48390   Biso      1.000     C          -0.31283099999999997          
         C40       1.0000    0.91280   0.71590   0.51860   Biso      1.000     C          0.308218  
         C41       1.0000    0.77310   0.57200   0.50790   Biso      1.000     C          0.296157  
         C42       1.0000    0.99010   0.83230   0.51100   Biso      1.000     C          -0.545666           
         C43       1.0000    0.67140   0.49100   0.48890   Biso      1.000     C          -0.526812           
         C44       1.0000    0.28460   0.21590   0.44620   Biso      1.000     C          0.586132  
         C45       1.0000    0.20850   0.28680   0.49550   Biso      1.000     C          -0.30644  
         C46       1.0000    0.24200   0.40450   0.52520   Biso      1.000     C          0.304161  
         C47       1.0000    0.47480   0.65040   0.77500   Biso      1.000     C          -0.546772           
         C48       1.0000    0.15410   0.98490   0.75420   Biso      1.000     C          -0.543239           
         Cu1       1.0000    0.38354   0.10803   0.85612   Biso      1.000     Cu          0.672721  
         Cu2       1.0000    0.59223   0.89933   0.86556   Biso      1.000     Cu          0.6583439999999999  
         Cu3       1.0000    0.61646   0.89197   0.35612   Biso      1.000     Cu          0.672719  
         Cu4       1.0000    0.40777   0.10067   0.36556   Biso      1.000     Cu          0.658347  
         Cu5       1.0000    0.89197   0.38354   0.60612   Biso      1.000     Cu          0.672722  
         Cu6       1.0000    0.10067   0.59223   0.61556   Biso      1.000     Cu          0.658345  
         Cu7       1.0000    0.10803   0.61646   0.10612   Biso      1.000     Cu          0.672723  
         Cu8       1.0000    0.89933   0.40777   0.11556   Biso      1.000     Cu          0.658345  
         H1        1.0000    0.65430   0.46560   0.06370   Biso      1.000     H          0.17873599999999998           
         H2        1.0000    0.89160   0.05380   0.73260   Biso      1.000     H          0.182112  
         H3        1.0000    0.83410   0.97010   0.20930   Biso      1.000     H          0.17793   
         H4        1.0000    0.91600   0.06660   0.24930   Biso      1.000     H          0.180447  
         H5        1.0000    0.46560   0.34570   0.31370   Biso      1.000     H          0.17873699999999998           
         H6        1.0000    0.57730   0.41850   0.28290   Biso      1.000     H          0.183626  
         H7        1.0000    0.48490   0.35780   0.22810   Biso      1.000     H          0.187249  
         H8        1.0000    0.81320   0.93490   0.73640   Biso      1.000     H          0.174097  
         H9        1.0000    0.85830   0.95940   0.29450   Biso      1.000     H          0.171468  
         H10       1.0000    0.86450   0.99270   0.80920   Biso      1.000     H          0.180891  
         H11       1.0000    0.53440   0.65430   0.81370   Biso      1.000     H          0.17873599999999998           
         H12       1.0000    0.41330   0.31670   0.76200   Biso      1.000     H          0.167947  
         H13       1.0000    0.48070   0.33210   0.68620   Biso      1.000     H          0.184843  
         H14       1.0000    0.51930   0.66790   0.18620   Biso      1.000     H          0.184842  
         H15       1.0000    0.64220   0.48490   0.97810   Biso      1.000     H          0.187249  
         H16       1.0000    0.42270   0.58150   0.78290   Biso      1.000     H          0.183625  
         H17       1.0000    0.14170   0.04060   0.79450   Biso      1.000     H          0.171468  
         H18       1.0000    0.08400   0.93340   0.74930   Biso      1.000     H          0.180447  
         H19       1.0000    0.16590   0.02990   0.70930   Biso      1.000     H          0.17793   
         H20       1.0000    0.52610   0.40350   0.75600   Biso      1.000     H          0.181222  
         H21       1.0000    0.58670   0.68330   0.26200   Biso      1.000     H          0.167947  
         H22       1.0000    0.51510   0.64220   0.72810   Biso      1.000     H          0.187249  
         H23       1.0000    0.13550   0.00730   0.30920   Biso      1.000     H          0.180891  
         H24       1.0000    0.47390   0.59650   0.25600   Biso      1.000     H          0.181221  
         H25       1.0000    0.33210   0.51930   0.93620   Biso      1.000     H          0.184842  
         H26       1.0000    0.31670   0.58670   0.01200   Biso      1.000     H          0.167946  
         H27       1.0000    0.40350   0.47390   0.00600   Biso      1.000     H          0.181221  
         H28       1.0000    0.99270   0.13550   0.05920   Biso      1.000     H          0.180891  
         H29       1.0000    0.93490   0.18680   0.98640   Biso      1.000     H          0.174097  
         H30       1.0000    0.05380   0.10840   0.98260   Biso      1.000     H          0.182112  
         H31       1.0000    0.58150   0.57730   0.03290   Biso      1.000     H          0.183626  
         H32       1.0000    0.04060   0.85830   0.04450   Biso      1.000     H          0.171468  
         H33       1.0000    0.93340   0.91600   0.99930   Biso      1.000     H          0.180447  
         H34       1.0000    0.94620   0.89160   0.48260   Biso      1.000     H          0.182113  
         H35       1.0000    0.06510   0.81320   0.48640   Biso      1.000     H          0.174097  
         H36       1.0000    0.02990   0.83410   0.95930   Biso      1.000     H          0.17793   
         H37       1.0000    0.59650   0.52610   0.50600   Biso      1.000     H          0.181222  
         H38       1.0000    0.18680   0.06510   0.23640   Biso      1.000     H          0.174097  
         H39       1.0000    0.10840   0.94620   0.23260   Biso      1.000     H          0.182113  
         H40       1.0000    0.97010   0.16590   0.45930   Biso      1.000     H          0.17793   
         H41       1.0000    0.00730   0.86450   0.55920   Biso      1.000     H          0.180891  
         H42       1.0000    0.95940   0.14170   0.54450   Biso      1.000     H          0.171468  
         H43       1.0000    0.41850   0.42270   0.53290   Biso      1.000     H          0.183625  
         H44       1.0000    0.06660   0.08400   0.49930   Biso      1.000     H          0.180447  
         H45       1.0000    0.34570   0.53440   0.56370   Biso      1.000     H          0.17873599999999998           
         H46       1.0000    0.66790   0.48070   0.43620   Biso      1.000     H          0.184843  
         H47       1.0000    0.68330   0.41330   0.51200   Biso      1.000     H          0.167947  
         H48       1.0000    0.35780   0.51510   0.47810   Biso      1.000     H          0.187249  
         N1        1.0000    0.04640   0.37500   0.05690   Biso      1.000     N          -0.26026900000000003          
         N2        1.0000    0.14080   0.43720   0.56580   Biso      1.000     N          -0.293205           
         N3        1.0000    0.13540   0.46480   0.05150   Biso      1.000     N          -0.28607899999999997          
         N4        1.0000    0.85920   0.56280   0.06580   Biso      1.000     N          -0.293204           
         N5        1.0000    0.95210   0.64550   0.05860   Biso      1.000     N          -0.24470999999999998          
         N6        1.0000    0.95360   0.62500   0.55690   Biso      1.000     N          -0.26027  
         N7        1.0000    0.86460   0.53520   0.55150   Biso      1.000     N          -0.28607899999999997          
         N8        1.0000    0.04790   0.35450   0.55860   Biso      1.000     N          -0.244707           
         N9        1.0000    0.53520   0.13540   0.80150   Biso      1.000     N          -0.286083           
         N10       1.0000    0.46480   0.86460   0.30150   Biso      1.000     N          -0.286082           
         N11       1.0000    0.56280   0.14080   0.31580   Biso      1.000     N          -0.293206           
         N12       1.0000    0.64550   0.04790   0.30860   Biso      1.000     N          -0.24470799999999998          
         N13       1.0000    0.62500   0.04640   0.80690   Biso      1.000     N          -0.260265           
         N14       1.0000    0.43720   0.85920   0.81580   Biso      1.000     N          -0.293205           
         N15       1.0000    0.35450   0.95210   0.80860   Biso      1.000     N          -0.244709           
         N16       1.0000    0.37500   0.95360   0.30690   Biso      1.000     N          -0.260267           
         O1        1.0000    0.61060   0.74980   0.92810   Biso      1.000     O          -0.4946   
         O2        1.0000    0.75310   0.88520   0.91810   Biso      1.000     O          -0.50789  
         O3        1.0000    0.77360   0.87180   0.41320   Biso      1.000     O          -0.516795           
         O4        1.0000    0.63630   0.73270   0.40710   Biso      1.000     O          -0.49210299999999996          
         O5        1.0000    0.38940   0.25020   0.42810   Biso      1.000     O          -0.4946   
         O6        1.0000    0.24690   0.11480   0.41810   Biso      1.000     O          -0.507892           
         O7        1.0000    0.12820   0.77360   0.16320   Biso      1.000     O          -0.516796           
         O8        1.0000    0.88520   0.24690   0.16810   Biso      1.000     O          -0.50789  
         O9        1.0000    0.74980   0.38940   0.17810   Biso      1.000     O          -0.49459899999999996          
         O10       1.0000    0.87180   0.22640   0.66320   Biso      1.000     O          -0.516796           
         O11       1.0000    0.73270   0.36370   0.65710   Biso      1.000     O          -0.492105           
         O12       1.0000    0.25020   0.61060   0.67810   Biso      1.000     O          -0.494601           
         O13       1.0000    0.11480   0.75310   0.66810   Biso      1.000     O          -0.507891           
         O14       1.0000    0.36370   0.26730   0.90710   Biso      1.000     O          -0.492104           
         O15       1.0000    0.26730   0.63630   0.15710   Biso      1.000     O          -0.49210600000000004          
         O16       1.0000    0.22640   0.12820   0.91320   Biso      1.000     O          -0.516796 