
##########################################################################
#               Crystallographic Information Format file
#               Produced by PyCifRW module
#
#  This is a CIF file.  CIF has been adopted by the International
#  Union of Crystallography as the standard for data archiving and
#  transmission.
#
#  For information on this file format, follow the CIF links at
#  http://www.iucr.org
##########################################################################

data_image0

_cell_length_a                          11.4269
_cell_length_b                          11.4269
_cell_length_c                          18.8731
_cell_angle_alpha                       94.7584
_cell_angle_beta                        94.7584
_cell_angle_gamma                       96.7219
_symmetry_space_group_name_H-M          'P 1'
_symmetry_int_tables_number             1
loop_
  _symmetry_equiv_pos_as_xyz
         'x, y, z' 
loop_
  _atom_site_label
  _atom_site_occupancy
  _atom_site_fract_x
  _atom_site_fract_y
  _atom_site_fract_z
  _atom_site_thermal_displace_type
  _atom_site_B_iso_or_equiv
  _atom_site_type_symbol
  _atom_site_charge
         C1        1.0000    0.82393   0.68865   0.91647   Biso      1.000     C          -0.028957           
         C2        1.0000    0.19938   0.80932   0.31420   Biso      1.000     C          -0.231186           
         C3        1.0000    0.93634   0.07830   0.88323   Biso      1.000     C          0.607374  
         C4        1.0000    0.87554   0.62042   0.86614   Biso      1.000     C          -0.087734           
         C5        1.0000    0.63395   0.36191   0.81431   Biso      1.000     C          -0.166729           
         C6        1.0000    0.81441   0.51539   0.83304   Biso      1.000     C          -0.163063           
         C7        1.0000    0.65096   0.54266   0.90146   Biso      1.000     C          -0.173954           
         C8        1.0000    0.71148   0.64896   0.93448   Biso      1.000     C          -0.095276           
         C9        1.0000    0.70221   0.47611   0.85009   Biso      1.000     C          0.119984  
         C10       1.0000    0.80062   0.19068   0.68580   Biso      1.000     C          -0.231197           
         C11       1.0000    0.11851   0.89053   0.31400   Biso      1.000     C          0.013914  
         C12       1.0000    0.88149   0.10947   0.68600   Biso      1.000     C          0.013941  
         C13       1.0000    0.52389   0.29779   0.64991   Biso      1.000     C          0.120112  
         C14       1.0000    0.31135   0.17607   0.58353   Biso      1.000     C          -0.025818           
         C15       1.0000    0.35104   0.28852   0.56552   Biso      1.000     C          -0.095742           
         C16       1.0000    0.45734   0.34904   0.59854   Biso      1.000     C          -0.173655           
         C17       1.0000    0.48461   0.18559   0.66696   Biso      1.000     C          -0.162824           
         C18       1.0000    0.63809   0.36605   0.68569   Biso      1.000     C          -0.166807           
         C19       1.0000    0.37958   0.12446   0.63386   Biso      1.000     C          -0.088208           
         C20       1.0000    0.92170   0.06366   0.61677   Biso      1.000     C          0.6066    
         C21       1.0000    0.80932   0.19938   0.81420   Biso      1.000     C          -0.23172  
         C22       1.0000    0.19727   0.10959   0.54992   Biso      1.000     C          0.598072  
         C23       1.0000    0.80273   0.89041   0.45008   Biso      1.000     C          0.598074  
         C24       1.0000    0.47611   0.70221   0.35009   Biso      1.000     C          0.120117  
         C25       1.0000    0.68865   0.82393   0.41647   Biso      1.000     C          -0.025824           
         C26       1.0000    0.07203   0.92797   0.25000   Biso      1.000     C          -0.1739   
         C27       1.0000    0.23784   0.76216   0.25000   Biso      1.000     C          0.189492  
         C28       1.0000    0.92797   0.07203   0.75000   Biso      1.000     C          -0.173807           
         C29       1.0000    0.76216   0.23784   0.75000   Biso      1.000     C          0.189511  
         C30       1.0000    0.06366   0.92170   0.11677   Biso      1.000     C          0.607378  
         C31       1.0000    0.12446   0.37958   0.13386   Biso      1.000     C          -0.087741           
         C32       1.0000    0.36605   0.63809   0.18569   Biso      1.000     C          -0.16673  
         C33       1.0000    0.18559   0.48461   0.16696   Biso      1.000     C          -0.163058           
         C34       1.0000    0.34904   0.45734   0.09854   Biso      1.000     C          -0.173959           
         C35       1.0000    0.28852   0.35104   0.06552   Biso      1.000     C          -0.095282           
         C36       1.0000    0.17607   0.31135   0.08353   Biso      1.000     C          -0.028962           
         C37       1.0000    0.29779   0.52389   0.14991   Biso      1.000     C          0.11999   
         C38       1.0000    0.10959   0.19727   0.04992   Biso      1.000     C          0.59898   
         C39       1.0000    0.10947   0.88149   0.18600   Biso      1.000     C          0.011725  
         C40       1.0000    0.19068   0.80062   0.18580   Biso      1.000     C          -0.231748           
         C41       1.0000    0.07830   0.93634   0.38323   Biso      1.000     C          0.60658   
         C42       1.0000    0.62042   0.87554   0.36614   Biso      1.000     C          -0.088224           
         C43       1.0000    0.36191   0.63395   0.31431   Biso      1.000     C          -0.166808           
         C44       1.0000    0.51539   0.81441   0.33304   Biso      1.000     C          -0.162818           
         C45       1.0000    0.54266   0.65096   0.40146   Biso      1.000     C          -0.173661           
         C46       1.0000    0.64896   0.71148   0.43448   Biso      1.000     C          -0.095739           
         C47       1.0000    0.89053   0.11851   0.81400   Biso      1.000     C          0.011696  
         C48       1.0000    0.89041   0.80273   0.95008   Biso      1.000     C          0.598978  
         Cu1       1.0000    0.97181   0.09550   0.47205   Biso      1.000     Cu          0.862238  
         Cu2       1.0000    0.90450   0.02819   0.02795   Biso      1.000     Cu          0.868566  
         Cu3       1.0000    0.02819   0.90450   0.52795   Biso      1.000     Cu          0.861679  
         Cu4       1.0000    0.09550   0.97181   0.97205   Biso      1.000     Cu          0.86838   
         H1        1.0000    0.62510   0.44930   0.69750   Biso      1.000     H          0.118957  
         H2        1.0000    0.77060   0.21500   0.64170   Biso      1.000     H          0.127071  
         H3        1.0000    0.30580   0.32420   0.53070   Biso      1.000     H          0.120155  
         H4        1.0000    0.48440   0.42560   0.58590   Biso      1.000     H          0.117257  
         H5        1.0000    0.52990   0.14990   0.70170   Biso      1.000     H          0.116964  
         H6        1.0000    0.01640   0.98360   0.25000   Biso      1.000     H          0.133473  
         H7        1.0000    0.69940   0.36580   0.65150   Biso      1.000     H          0.122913  
         H8        1.0000    0.35410   0.04690   0.64560   Biso      1.000     H          0.122561  
         H9        1.0000    0.78500   0.22940   0.85830   Biso      1.000     H          0.126942  
         H10       1.0000    0.67580   0.69420   0.96930   Biso      1.000     H          0.119848  
         H11       1.0000    0.85010   0.47010   0.79830   Biso      1.000     H          0.116801  
         H12       1.0000    0.55070   0.37490   0.80250   Biso      1.000     H          0.118865  
         H13       1.0000    0.63420   0.30060   0.84850   Biso      1.000     H          0.122811  
         H14       1.0000    0.57440   0.51560   0.91410   Biso      1.000     H          0.117085  
         H15       1.0000    0.22940   0.78500   0.35830   Biso      1.000     H          0.127069  
         H16       1.0000    0.98360   0.01640   0.75000   Biso      1.000     H          0.133468  
         H17       1.0000    0.04690   0.35410   0.14560   Biso      1.000     H          0.122287  
         H18       1.0000    0.36580   0.69940   0.15150   Biso      1.000     H          0.122807  
         H19       1.0000    0.95310   0.64590   0.85440   Biso      1.000     H          0.122294  
         H20       1.0000    0.14990   0.52990   0.20170   Biso      1.000     H          0.116801  
         H21       1.0000    0.42560   0.48440   0.08590   Biso      1.000     H          0.117081  
         H22       1.0000    0.32420   0.30580   0.03070   Biso      1.000     H          0.119844  
         H23       1.0000    0.44930   0.62510   0.19750   Biso      1.000     H          0.118853  
         H24       1.0000    0.64590   0.95310   0.35440   Biso      1.000     H          0.122552  
         H25       1.0000    0.30060   0.63420   0.34850   Biso      1.000     H          0.122909  
         H26       1.0000    0.37490   0.55070   0.30250   Biso      1.000     H          0.118943  
         H27       1.0000    0.47010   0.85010   0.29830   Biso      1.000     H          0.116963  
         H28       1.0000    0.51560   0.57440   0.41410   Biso      1.000     H          0.117253  
         H29       1.0000    0.69420   0.67580   0.46930   Biso      1.000     H          0.120152  
         H30       1.0000    0.21500   0.77060   0.14170   Biso      1.000     H          0.126941  
         N1        1.0000    0.68140   0.31860   0.75000   Biso      1.000     N          -0.077828           
         N2        1.0000    0.31860   0.68140   0.25000   Biso      1.000     N          -0.077878           
         O1        1.0000    0.08769   0.87235   0.43403   Biso      1.000     O          -0.541293           
         O2        1.0000    0.16683   0.13085   0.01260   Biso      1.000     O          -0.541141           
         O3        1.0000    0.12765   0.91231   0.06597   Biso      1.000     O          -0.541871           
         O4        1.0000    0.03715   0.03369   0.38531   Biso      1.000     O          -0.52491  
         O5        1.0000    0.82368   0.99684   0.43865   Biso      1.000     O          -0.530901           
         O6        1.0000    0.86915   0.83317   0.48740   Biso      1.000     O          -0.540378           
         O7        1.0000    0.03369   0.03715   0.88531   Biso      1.000     O          -0.525147           
         O8        1.0000    0.00316   0.17632   0.06135   Biso      1.000     O          -0.531491           
         O9        1.0000    0.83317   0.86915   0.98740   Biso      1.000     O          -0.541153           
         O10       1.0000    0.87235   0.08769   0.93403   Biso      1.000     O          -0.541948           
         O11       1.0000    0.96285   0.96631   0.61469   Biso      1.000     O          -0.524949           
         O12       1.0000    0.17632   0.00316   0.56135   Biso      1.000     O          -0.53089  
         O13       1.0000    0.13085   0.16683   0.51260   Biso      1.000     O          -0.540386           
         O14       1.0000    0.91231   0.12765   0.56597   Biso      1.000     O          -0.541389           
         O15       1.0000    0.99684   0.82368   0.93865   Biso      1.000     O          -0.531491           
         O16       1.0000    0.96631   0.96285   0.11469   Biso      1.000     O          -0.525125 