
##########################################################################
#               Crystallographic Information Format file
#               Produced by PyCifRW module
#
#  This is a CIF file.  CIF has been adopted by the International
#  Union of Crystallography as the standard for data archiving and
#  transmission.
#
#  For information on this file format, follow the CIF links at
#  http://www.iucr.org
##########################################################################

data_image0

_cell_length_a                          10.6325
_cell_length_b                          10.7258
_cell_length_c                          18.3532
_cell_angle_alpha                       76.671
_cell_angle_beta                        86.717
_cell_angle_gamma                       74.278
_symmetry_space_group_name_H-M          'P 1'
_symmetry_int_tables_number             1
loop_
  _symmetry_equiv_pos_as_xyz
         'x, y, z' 
loop_
  _atom_site_label
  _atom_site_occupancy
  _atom_site_fract_x
  _atom_site_fract_y
  _atom_site_fract_z
  _atom_site_thermal_displace_type
  _atom_site_B_iso_or_equiv
  _atom_site_type_symbol
  _atom_site_charge
         C1        1.0000    0.47000   0.46520   0.77010   Biso      1.000     C          -0.159392           
         C2        1.0000    0.64050   0.78280   0.51880   Biso      1.000     C          -0.09438099999999999          
         C3        1.0000    0.56140   0.69810   0.54460   Biso      1.000     C          -0.16783599999999999          
         C4        1.0000    0.78570   0.67030   0.62290   Biso      1.000     C          -0.090535           
         C5        1.0000    0.87400   0.09470   0.74040   Biso      1.000     C          -0.165184           
         C6        1.0000    0.75480   0.76700   0.55710   Biso      1.000     C          -0.02817  
         C7        1.0000    0.70440   0.58720   0.64780   Biso      1.000     C          -0.155203           
         C8        1.0000    0.59550   0.59780   0.60880   Biso      1.000     C          0.115781  
         C9        1.0000    0.38210   0.26210   0.79380   Biso      1.000     C          -0.158545           
         C10       1.0000    0.87430   0.08160   0.87910   Biso      1.000     C          0.603105  
         C11       1.0000    0.89420   0.10530   0.60410   Biso      1.000     C          0.609301  
         C12       1.0000    0.64960   0.31240   0.71840   Biso      1.000     C          0.187855  
         C13       1.0000    0.70410   0.24900   0.79070   Biso      1.000     C          -0.22280500000000003          
         C14       1.0000    0.81150   0.14180   0.80150   Biso      1.000     C          0.009504  
         C15       1.0000    0.30350   0.18440   0.83390   Biso      1.000     C          -0.09715800000000001          
         C16       1.0000    0.82590   0.15390   0.67140   Biso      1.000     C          0.012745000000000001          
         C17       1.0000    0.71720   0.26260   0.65880   Biso      1.000     C          -0.23575700000000002          
         C18       1.0000    0.38950   0.37670   0.81420   Biso      1.000     C          0.12128900000000001           
         C19       1.0000    0.23360   0.22220   0.89380   Biso      1.000     C          -0.024066           
         C20       1.0000    0.24300   0.33360   0.91450   Biso      1.000     C          -0.092339           
         C21       1.0000    0.50830   0.50370   0.63450   Biso      1.000     C          -0.16406300000000001          
         C22       1.0000    0.15120   0.13700   0.93730   Biso      1.000     C          0.6091479999999999  
         C23       1.0000    0.12570   0.91840   0.12090   Biso      1.000     C          0.603102  
         C24       1.0000    0.35040   0.68760   0.28160   Biso      1.000     C          0.187854  
         C25       1.0000    0.84880   0.86300   0.06270   Biso      1.000     C          0.60915   
         C26       1.0000    0.10580   0.89470   0.39590   Biso      1.000     C          0.609267  
         C27       1.0000    0.35950   0.21720   0.48120   Biso      1.000     C          -0.09437899999999999          
         C28       1.0000    0.43860   0.30190   0.45540   Biso      1.000     C          -0.167853           
         C29       1.0000    0.21430   0.32970   0.37710   Biso      1.000     C          -0.09055  
         C30       1.0000    0.12600   0.90530   0.25960   Biso      1.000     C          -0.165249           
         C31       1.0000    0.24520   0.23300   0.44290   Biso      1.000     C          -0.028173           
         C32       1.0000    0.29560   0.41280   0.35220   Biso      1.000     C          -0.155198           
         C33       1.0000    0.40450   0.40220   0.39120   Biso      1.000     C          0.115772  
         C34       1.0000    0.53000   0.53480   0.22990   Biso      1.000     C          -0.159385           
         C35       1.0000    0.61790   0.73790   0.20620   Biso      1.000     C          -0.158547           
         C36       1.0000    0.67960   0.58880   0.12610   Biso      1.000     C          -0.168427           
         C37       1.0000    0.15550   0.14600   0.47000   Biso      1.000     C          0.599618  
         C38       1.0000    0.49170   0.49630   0.36550   Biso      1.000     C          -0.164052           
         C39       1.0000    0.75700   0.66640   0.08550   Biso      1.000     C          -0.092348           
         C40       1.0000    0.76640   0.77780   0.10620   Biso      1.000     C          -0.024066           
         C41       1.0000    0.61050   0.62330   0.18580   Biso      1.000     C          0.121294  
         C42       1.0000    0.28280   0.73740   0.34120   Biso      1.000     C          -0.235765           
         C43       1.0000    0.17410   0.84610   0.32860   Biso      1.000     C          0.012738  
         C44       1.0000    0.69650   0.81560   0.16610   Biso      1.000     C          -0.09715900000000001          
         C45       1.0000    0.18850   0.85820   0.19850   Biso      1.000     C          0.009533  
         C46       1.0000    0.29590   0.75100   0.20930   Biso      1.000     C          -0.22280999999999998          
         C47       1.0000    0.84450   0.85400   0.53000   Biso      1.000     C          0.599608  
         C48       1.0000    0.32040   0.41120   0.87390   Biso      1.000     C          -0.16841099999999998          
         Cu1       1.0000    0.07069   0.89708   0.97548   Biso      1.000     Cu          0.8643780000000001  
         Cu2       1.0000    0.90979   0.08455   0.45389   Biso      1.000     Cu          0.8583959999999999  
         Cu3       1.0000    0.92931   0.10292   0.02452   Biso      1.000     Cu          0.864591  
         Cu4       1.0000    0.09021   0.91545   0.54611   Biso      1.000     Cu          0.8576    
         H1        1.0000    0.51430   0.44860   0.59730   Biso      1.000     H          0.11271400000000001           
         H2        1.0000    0.66490   0.28190   0.83270   Biso      1.000     H          0.122524  
         H3        1.0000    0.29870   0.10600   0.81970   Biso      1.000     H          0.122767  
         H4        1.0000    0.68800   0.30410   0.60890   Biso      1.000     H          0.121873  
         H5        1.0000    0.19640   0.35850   0.95690   Biso      1.000     H          0.11823199999999999           
         H6        1.0000    0.38350   0.14840   0.52500   Biso      1.000     H          0.122012  
         H7        1.0000    0.41660   0.55760   0.63470   Biso      1.000     H          0.11989100000000001           
         H8        1.0000    0.32450   0.48950   0.88850   Biso      1.000     H          0.115101  
         H9        1.0000    0.43070   0.23620   0.75220   Biso      1.000     H          0.11289400000000001           
         H10       1.0000    0.53470   0.47350   0.80410   Biso      1.000     H          0.10990899999999999           
         H11       1.0000    0.72540   0.52150   0.69310   Biso      1.000     H          0.11205599999999999           
         H12       1.0000    0.94970   0.02150   0.74760   Biso      1.000     H          0.132164  
         H13       1.0000    0.86170   0.66090   0.65060   Biso      1.000     H          0.12521   
         H14       1.0000    0.41150   0.55500   0.75120   Biso      1.000     H          0.12273099999999999           
         H15       1.0000    0.61650   0.85160   0.47500   Biso      1.000     H          0.12201400000000001           
         H16       1.0000    0.51640   0.29120   0.48190   Biso      1.000     H          0.11725799999999999           
         H17       1.0000    0.13830   0.33910   0.34940   Biso      1.000     H          0.125195  
         H18       1.0000    0.05030   0.97850   0.25240   Biso      1.000     H          0.13216   
         H19       1.0000    0.48360   0.70880   0.51810   Biso      1.000     H          0.11726800000000001           
         H20       1.0000    0.58850   0.44500   0.24880   Biso      1.000     H          0.12271199999999999           
         H21       1.0000    0.46530   0.52650   0.19590   Biso      1.000     H          0.109894  
         H22       1.0000    0.56930   0.76380   0.24780   Biso      1.000     H          0.112891  
         H23       1.0000    0.27460   0.47850   0.30690   Biso      1.000     H          0.112053  
         H24       1.0000    0.58340   0.44240   0.36530   Biso      1.000     H          0.119868  
         H25       1.0000    0.48570   0.55140   0.40270   Biso      1.000     H          0.11270699999999999           
         H26       1.0000    0.80360   0.64150   0.04310   Biso      1.000     H          0.11823499999999999           
         H27       1.0000    0.31200   0.69590   0.39110   Biso      1.000     H          0.121876  
         H28       1.0000    0.70130   0.89400   0.18030   Biso      1.000     H          0.12275   
         H29       1.0000    0.33510   0.71810   0.16730   Biso      1.000     H          0.122528  
         H30       1.0000    0.67550   0.51050   0.11150   Biso      1.000     H          0.115095  
         N1        1.0000    0.53860   0.41690   0.70700   Biso      1.000     N          -0.07838099999999999          
         N2        1.0000    0.46140   0.58310   0.29300   Biso      1.000     N          -0.078452           
         O1        1.0000    0.82450   0.97880   0.06960   Biso      1.000     O          -0.531539           
         O2        1.0000    0.16290   0.84920   0.07220   Biso      1.000     O          -0.542532           
         O3        1.0000    0.15830   0.84370   0.45880   Biso      1.000     O          -0.534841           
         O4        1.0000    0.04260   0.18340   0.44010   Biso      1.000     O          -0.554003           
         O5        1.0000    0.19890   0.04120   0.51830   Biso      1.000     O          -0.524872           
         O6        1.0000    0.94090   0.80660   0.02420   Biso      1.000     O          -0.5465810000000001           
         O7        1.0000    0.99710   0.01520   0.61900   Biso      1.000     O          -0.528725           
         O8        1.0000    0.04280   0.02550   0.11310   Biso      1.000     O          -0.512591           
         O9        1.0000    0.83710   0.15080   0.92780   Biso      1.000     O          -0.542651           
         O10       1.0000    0.84170   0.15630   0.54120   Biso      1.000     O          -0.534993           
         O11       1.0000    0.95740   0.81660   0.55990   Biso      1.000     O          -0.553987           
         O12       1.0000    0.80110   0.95880   0.48170   Biso      1.000     O          -0.524863           
         O13       1.0000    0.05910   0.19340   0.97580   Biso      1.000     O          -0.546578           
         O14       1.0000    0.17550   0.02120   0.93040   Biso      1.000     O          -0.531524           
         O15       1.0000    0.95720   0.97450   0.88690   Biso      1.000     O          -0.512629           
         O16       1.0000    0.00290   0.98480   0.38100   Biso      1.000     O          -0.528662 