
##########################################################################
#               Crystallographic Information Format file
#               Produced by PyCifRW module
#
#  This is a CIF file.  CIF has been adopted by the International
#  Union of Crystallography as the standard for data archiving and
#  transmission.
#
#  For information on this file format, follow the CIF links at
#  http://www.iucr.org
##########################################################################

data_image0

_cell_length_a                          11.7992
_cell_length_b                          11.8606
_cell_length_c                          13.6301
_cell_angle_alpha                       95.263
_cell_angle_beta                        108.547
_cell_angle_gamma                       108.081
_symmetry_space_group_name_H-M          'P 1'
_symmetry_int_tables_number             1
loop_
  _symmetry_equiv_pos_as_xyz
         'x, y, z' 
loop_
  _atom_site_label
  _atom_site_occupancy
  _atom_site_fract_x
  _atom_site_fract_y
  _atom_site_fract_z
  _atom_site_thermal_displace_type
  _atom_site_B_iso_or_equiv
  _atom_site_type_symbol
  _atom_site_charge
         C1        1.0000    0.30470   0.20540   0.37915   Biso      1.000     C          0.584201  
         C2        1.0000    0.04170   0.96040   0.50853   Biso      1.000     C          0.472724  
         C3        1.0000    0.06920   0.04620   0.02386   Biso      1.000     C          0.5261140000000001  
         C4        1.0000    0.14370   0.78900   0.81363   Biso      1.000     C          0.549832  
         C5        1.0000    0.62380   0.99730   0.91392   Biso      1.000     C          0.575436  
         C6        1.0000    0.74810   0.11050   0.71523   Biso      1.000     C          0.164674  
         C7        1.0000    0.62810   0.12040   0.68231   Biso      1.000     C          -0.142492           
         C8        1.0000    0.52220   0.01520   0.63184   Biso      1.000     C          -0.015839           
         C9        1.0000    0.31610   0.54720   0.40910   Biso      1.000     C          0.6933010000000001  
         C10       1.0000    0.53910   0.90510   0.61514   Biso      1.000     C          -0.167523           
         C11       1.0000    0.86960   0.21710   0.77721   Biso      1.000     C          0.546888  
         C12       1.0000    0.39120   0.02340   0.59210   Biso      1.000     C          0.6452939999999999  
         C13       1.0000    0.69530   0.79460   0.62085   Biso      1.000     C          0.584202  
         C14       1.0000    0.34100   0.09600   0.82179   Biso      1.000     C          0.126033  
         C15       1.0000    0.46600   0.09880   0.85472   Biso      1.000     C          -0.163395           
         C16       1.0000    0.48760   0.99300   0.87390   Biso      1.000     C          -0.0006519999999999999        
         C17       1.0000    0.38470   0.88820   0.85929   Biso      1.000     C          -0.165009           
         C18       1.0000    0.66300   0.90500   0.64600   Biso      1.000     C          0.113758  
         C19       1.0000    0.17720   0.46760   0.36680   Biso      1.000     C          -0.183394           
         C20       1.0000    0.25190   0.88950   0.28477   Biso      1.000     C          0.164674  
         C21       1.0000    0.37190   0.87960   0.31769   Biso      1.000     C          -0.142491           
         C22       1.0000    0.82280   0.53240   0.63320   Biso      1.000     C          -0.18339  
         C23       1.0000    0.68390   0.45280   0.59090   Biso      1.000     C          0.6933    
         C24       1.0000    0.95830   0.03960   0.49147   Biso      1.000     C          0.47272299999999995           
         C25       1.0000    0.93080   0.95380   0.97614   Biso      1.000     C          0.5261170000000001  
         C26       1.0000    0.85630   0.21100   0.18637   Biso      1.000     C          0.549809  
         C27       1.0000    0.37620   0.00270   0.08608   Biso      1.000     C          0.575438  
         C28       1.0000    0.69600   0.79780   0.20807   Biso      1.000     C          0.591461  
         C29       1.0000    0.73700   0.10510   0.17140   Biso      1.000     C          0.145598  
         C30       1.0000    0.61530   0.11180   0.14071   Biso      1.000     C          -0.16501500000000002          
         C31       1.0000    0.51240   0.00700   0.12610   Biso      1.000     C          -0.000655           
         C32       1.0000    0.53400   0.90120   0.14528   Biso      1.000     C          -0.16339800000000002          
         C33       1.0000    0.65900   0.90400   0.17821   Biso      1.000     C          0.126032  
         C34       1.0000    0.60880   0.97660   0.40790   Biso      1.000     C          0.6452939999999999  
         C35       1.0000    0.13040   0.78290   0.22279   Biso      1.000     C          0.546913  
         C36       1.0000    0.33700   0.09500   0.35400   Biso      1.000     C          0.11376300000000002           
         C37       1.0000    0.46090   0.09490   0.38486   Biso      1.000     C          -0.167519           
         C38       1.0000    0.47780   0.98480   0.36816   Biso      1.000     C          -0.015832           
         C39       1.0000    0.26300   0.89490   0.82860   Biso      1.000     C          0.145582  
         C40       1.0000    0.30400   0.20220   0.79193   Biso      1.000     C          0.5914590000000001  
         Ce1       1.0000    0.00139   0.99780   0.74980   Biso      1.000     Ce          1.942743  
         Ce2       1.0000    0.99861   0.00220   0.25020   Biso      1.000     Ce          1.942752  
         Ce3       1.0000    0.37253   0.35864   0.61235   Biso      1.000     Ce          1.849834  
         Ce4       1.0000    0.62747   0.64136   0.38765   Biso      1.000     Ce          1.8498189999999999  
         H1        1.0000    0.87300   0.48300   0.76800   Biso      1.000     H          0.34111199999999997           
         H2        1.0000    0.61920   0.19520   0.69370   Biso      1.000     H          0.132106  
         H3        1.0000    0.46900   0.83310   0.58400   Biso      1.000     H          0.13355699999999998           
         H4        1.0000    0.53370   0.16990   0.86370   Biso      1.000     H          0.147696  
         H5        1.0000    0.39660   0.81560   0.86970   Biso      1.000     H          0.146505  
         H6        1.0000    0.23210   0.92540   0.51210   Biso      1.000     H          0.420847  
         H7        1.0000    0.70570   0.89750   0.95410   Biso      1.000     H          0.41828699999999996           
         H8        1.0000    0.13090   0.50330   0.39950   Biso      1.000     H          0.153139  
         H9        1.0000    0.16830   0.38860   0.38430   Biso      1.000     H          0.125719  
         H10       1.0000    0.44330   0.60800   0.53330   Biso      1.000     H          0.414886  
         H11       1.0000    0.84100   0.58100   0.77700   Biso      1.000     H          0.330803  
         H12       1.0000    0.15900   0.41900   0.22300   Biso      1.000     H          0.33077   
         H13       1.0000    0.12700   0.51700   0.23200   Biso      1.000     H          0.341094  
         H14       1.0000    0.38080   0.80480   0.30630   Biso      1.000     H          0.13211099999999998           
         H15       1.0000    0.53100   0.16690   0.41600   Biso      1.000     H          0.133562  
         H16       1.0000    0.46630   0.83010   0.13630   Biso      1.000     H          0.147702  
         H17       1.0000    0.60340   0.18440   0.13030   Biso      1.000     H          0.14651   
         H18       1.0000    0.76790   0.07460   0.48790   Biso      1.000     H          0.420847  
         H19       1.0000    0.29430   0.10250   0.04590   Biso      1.000     H          0.41828699999999996           
         H20       1.0000    0.86910   0.49670   0.60050   Biso      1.000     H          0.153141  
         H21       1.0000    0.55670   0.39200   0.46670   Biso      1.000     H          0.414882  
         H22       1.0000    0.83170   0.61140   0.61570   Biso      1.000     H          0.125719  
         N1        1.0000    0.75794   0.00337   0.18913   Biso      1.000     N          -0.3221   
         N2        1.0000    0.23471   0.99390   0.30441   Biso      1.000     N          -0.305917           
         N3        1.0000    0.87760   0.54670   0.74870   Biso      1.000     N          -0.583047           
         N4        1.0000    0.24206   0.99663   0.81087   Biso      1.000     N          -0.322089           
         N5        1.0000    0.76529   0.00610   0.69559   Biso      1.000     N          -0.305921           
         N6        1.0000    0.12240   0.45330   0.25130   Biso      1.000     N          -0.58298  
         O1        1.0000    0.13794   0.68226   0.20148   Biso      1.000     O          -0.507196           
         O2        1.0000    0.69770   0.08180   0.46750   Biso      1.000     O          -0.49126000000000003          
         O3        1.0000    0.62677   0.88255   0.40013   Biso      1.000     O          -0.590375           
         O4        1.0000    0.39296   0.30621   0.41945   Biso      1.000     O          -0.685558           
         O5        1.0000    0.18871   0.18723   0.36051   Biso      1.000     O          -0.582654           
         O6        1.0000    0.81355   0.81485   0.24028   Biso      1.000     O          -0.591476           
         O7        1.0000    0.61062   0.70071   0.20205   Biso      1.000     O          -0.638985           
         O8        1.0000    0.28606   0.91144   0.07008   Biso      1.000     O          -0.435616           
         O9        1.0000    0.84689   0.31238   0.17891   Biso      1.000     O          -0.441988           
         O10       1.0000    0.95784   0.19005   0.20558   Biso      1.000     O          -0.585676           
         O11       1.0000    0.87585   0.92283   0.04003   Biso      1.000     O          -0.598723           
         O12       1.0000    0.02854   0.80595   0.19360   Biso      1.000     O          -0.5923930000000001           
         O13       1.0000    0.88398   0.91769   0.87784   Biso      1.000     O          -0.594957           
         O14       1.0000    0.93041   0.07092   0.40481   Biso      1.000     O          -0.598204           
         O15       1.0000    0.92390   0.06493   0.56619   Biso      1.000     O          -0.610719           
         O16       1.0000    0.36943   0.10799   0.06757   Biso      1.000     O          -0.522462           
         O17       1.0000    0.37202   0.58897   0.35370   Biso      1.000     O          -0.5444979999999999           
         O18       1.0000    0.30230   0.91820   0.53250   Biso      1.000     O          -0.49126400000000003          
         O19       1.0000    0.07610   0.93507   0.43381   Biso      1.000     O          -0.610722           
         O20       1.0000    0.63241   0.43583   0.48718   Biso      1.000     O          -0.630445           
         O21       1.0000    0.97146   0.19405   0.80640   Biso      1.000     O          -0.592389           
         O22       1.0000    0.86206   0.31774   0.79852   Biso      1.000     O          -0.507193           
         O23       1.0000    0.37323   0.11745   0.59987   Biso      1.000     O          -0.5903729999999999           
         O24       1.0000    0.60704   0.69379   0.58055   Biso      1.000     O          -0.6855399999999999           
         O25       1.0000    0.81129   0.81277   0.63949   Biso      1.000     O          -0.582661           
         O26       1.0000    0.18645   0.18515   0.75972   Biso      1.000     O          -0.591471           
         O27       1.0000    0.38938   0.29929   0.79795   Biso      1.000     O          -0.639001           
         O28       1.0000    0.63057   0.89201   0.93243   Biso      1.000     O          -0.522463           
         O29       1.0000    0.71394   0.08856   0.92992   Biso      1.000     O          -0.435622           
         O30       1.0000    0.15311   0.68762   0.82109   Biso      1.000     O          -0.44205900000000004          
         O31       1.0000    0.04216   0.80995   0.79442   Biso      1.000     O          -0.585658           
         O32       1.0000    0.12415   0.07717   0.95997   Biso      1.000     O          -0.598719           
         O33       1.0000    0.11602   0.08231   0.12216   Biso      1.000     O          -0.594961           
         O34       1.0000    0.06959   0.92908   0.59519   Biso      1.000     O          -0.5982   
         O35       1.0000    0.36759   0.56417   0.51282   Biso      1.000     O          -0.630429           
         O36       1.0000    0.62798   0.41103   0.64630   Biso      1.000     O          -0.544482 