
##########################################################################
#               Crystallographic Information Format file
#               Produced by PyCifRW module
#
#  This is a CIF file.  CIF has been adopted by the International
#  Union of Crystallography as the standard for data archiving and
#  transmission.
#
#  For information on this file format, follow the CIF links at
#  http://www.iucr.org
##########################################################################

data_image0

_cell_length_a                          7.281
_cell_length_b                          10.903
_cell_length_c                          15.148
_cell_angle_alpha                       90
_cell_angle_beta                        90
_cell_angle_gamma                       90
_symmetry_space_group_name_H-M          'P 1'
_symmetry_int_tables_number             1
loop_
  _symmetry_equiv_pos_as_xyz
         'x, y, z' 
loop_
  _atom_site_label
  _atom_site_occupancy
  _atom_site_fract_x
  _atom_site_fract_y
  _atom_site_fract_z
  _atom_site_thermal_displace_type
  _atom_site_B_iso_or_equiv
  _atom_site_type_symbol
  _atom_site_charge
         C1        1.0000    0.14570   0.33937   0.89377   Biso      1.000     C          -0.031247000000000004         
         C2        1.0000    0.64570   0.33937   0.60623   Biso      1.000     C          -0.032256           
         C3        1.0000    0.14380   0.51549   0.10570   Biso      1.000     C          0.650963  
         C4        1.0000    0.73570   0.75375   0.15515   Biso      1.000     C          0.614787  
         C5        1.0000    0.91220   0.96183   0.97998   Biso      1.000     C          -0.029718           
         C6        1.0000    0.85620   0.01549   0.89430   Biso      1.000     C          0.6473270000000001  
         C7        1.0000    0.35430   0.83937   0.39377   Biso      1.000     C          -0.031702999999999995         
         C8        1.0000    0.48430   0.37867   0.64161   Biso      1.000     C          -0.165382           
         C9        1.0000    0.62900   0.95727   0.40257   Biso      1.000     C          0.2114    
         C10       1.0000    0.19760   0.38195   0.97512   Biso      1.000     C          -0.13409000000000001          
         C11       1.0000    0.58780   0.46183   0.47998   Biso      1.000     C          -0.029526           
         C12       1.0000    0.69760   0.38195   0.52488   Biso      1.000     C          -0.134534           
         C13       1.0000    0.37100   0.45727   0.59743   Biso      1.000     C          0.21169200000000002           
         C14       1.0000    0.57540   0.99795   0.48383   Biso      1.000     C          -0.17531300000000002          
         C15       1.0000    0.87100   0.45727   0.90257   Biso      1.000     C          0.21101799999999998           
         C16       1.0000    0.01570   0.87867   0.14161   Biso      1.000     C          -0.166261           
         C17       1.0000    0.85430   0.83937   0.10623   Biso      1.000     C          -0.03165  
         C18       1.0000    0.30760   0.99610   0.13574   Biso      1.000     C          -0.501993           
         C19       1.0000    0.30240   0.88195   0.47512   Biso      1.000     C          -0.134095           
         C20       1.0000    0.12900   0.95727   0.09743   Biso      1.000     C          0.21145999999999998           
         C21       1.0000    0.69240   0.49610   0.86426   Biso      1.000     C          -0.501985           
         C22       1.0000    0.08780   0.46183   0.02002   Biso      1.000     C          -0.029957           
         C23       1.0000    0.80240   0.88195   0.02488   Biso      1.000     C          -0.1334   
         C24       1.0000    0.42460   0.49795   0.51617   Biso      1.000     C          -0.175287           
         C25       1.0000    0.41220   0.96183   0.52002   Biso      1.000     C          -0.029685000000000003         
         C26       1.0000    0.98430   0.37867   0.85839   Biso      1.000     C          -0.165699           
         C27       1.0000    0.23570   0.75375   0.34485   Biso      1.000     C          0.614805  
         C28       1.0000    0.64380   0.51549   0.39430   Biso      1.000     C          0.650917  
         C29       1.0000    0.51570   0.87867   0.35839   Biso      1.000     C          -0.16653099999999998          
         C30       1.0000    0.35620   0.01549   0.60570   Biso      1.000     C          0.648396  
         C31       1.0000    0.76430   0.25375   0.65515   Biso      1.000     C          0.612117  
         C32       1.0000    0.80760   0.99610   0.36426   Biso      1.000     C          -0.50197  
         C33       1.0000    0.92460   0.49795   0.98383   Biso      1.000     C          -0.17533800000000002          
         C34       1.0000    0.26430   0.25375   0.84485   Biso      1.000     C          0.61152   
         C35       1.0000    0.19240   0.49610   0.63574   Biso      1.000     C          -0.5016510000000001           
         C36       1.0000    0.07540   0.99795   0.01617   Biso      1.000     C          -0.175713           
         H1        1.0000    0.34710   0.55230   0.48430   Biso      1.000     H          0.120485  
         H2        1.0000    0.16080   0.57800   0.61390   Biso      1.000     H          0.15981800000000002           
         H3        1.0000    0.55050   0.85060   0.30140   Biso      1.000     H          0.113166  
         H4        1.0000    0.09660   0.43770   0.61830   Biso      1.000     H          0.170534  
         H5        1.0000    0.70200   0.49800   0.79970   Biso      1.000     H          0.156658  
         H6        1.0000    0.90340   0.93770   0.38170   Biso      1.000     H          0.170489  
         H7        1.0000    0.68960   0.85580   0.99970   Biso      1.000     H          0.12114000000000001           
         H8        1.0000    0.15290   0.05230   0.98430   Biso      1.000     H          0.120425  
         H9        1.0000    0.65290   0.05230   0.51570   Biso      1.000     H          0.120466  
         H10       1.0000    0.66080   0.57800   0.88610   Biso      1.000     H          0.15987200000000001           
         H11       1.0000    0.31040   0.35580   0.00030   Biso      1.000     H          0.12094   
         H12       1.0000    0.44950   0.35060   0.69860   Biso      1.000     H          0.11333199999999999           
         H13       1.0000    0.83920   0.07800   0.38610   Biso      1.000     H          0.15973900000000002           
         H14       1.0000    0.84710   0.55230   0.01570   Biso      1.000     H          0.120377  
         H15       1.0000    0.59660   0.43770   0.88170   Biso      1.000     H          0.170258  
         H16       1.0000    0.79800   0.99800   0.29970   Biso      1.000     H          0.156708  
         H17       1.0000    0.33920   0.07800   0.11390   Biso      1.000     H          0.15981900000000002           
         H18       1.0000    0.29800   0.99800   0.20030   Biso      1.000     H          0.156719  
         H19       1.0000    0.20200   0.49800   0.70030   Biso      1.000     H          0.156879  
         H20       1.0000    0.81040   0.35580   0.49970   Biso      1.000     H          0.120951  
         H21       1.0000    0.94950   0.35060   0.80140   Biso      1.000     H          0.11402899999999999           
         H22       1.0000    0.05050   0.85060   0.19860   Biso      1.000     H          0.113203  
         H23       1.0000    0.18960   0.85580   0.50030   Biso      1.000     H          0.12107799999999999           
         H24       1.0000    0.40340   0.93770   0.11830   Biso      1.000     H          0.170456  
         Mn1       1.0000    0.52668   0.09925   0.78153   Biso      1.000     Mn          1.012297  
         Mn2       1.0000    0.02668   0.09925   0.71847   Biso      1.000     Mn          0.9141360000000001  
         Mn3       1.0000    0.47332   0.59925   0.21847   Biso      1.000     Mn          1.008617  
         Mn4       1.0000    0.97332   0.59925   0.28153   Biso      1.000     Mn          1.008522  
         O1        1.0000    0.69217   0.01315   0.87526   Biso      1.000     O          -0.567941           
         O2        1.0000    0.28110   0.72301   0.26885   Biso      1.000     O          -0.597279           
         O3        1.0000    0.47941   0.06146   0.65017   Biso      1.000     O          -0.5882149999999999           
         O4        1.0000    0.52059   0.56146   0.34983   Biso      1.000     O          -0.59177  
         O5        1.0000    0.71890   0.22301   0.73115   Biso      1.000     O          -0.59142  
         O6        1.0000    0.90794   0.21787   0.62167   Biso      1.000     O          -0.503562           
         O7        1.0000    0.59206   0.71787   0.12167   Biso      1.000     O          -0.529479           
         O8        1.0000    0.97941   0.06146   0.84983   Biso      1.000     O          -0.5686329999999999           
         O9        1.0000    0.80783   0.51315   0.37526   Biso      1.000     O          -0.569801           
         O10       1.0000    0.02059   0.56146   0.15017   Biso      1.000     O          -0.5918439999999999           
         O11       1.0000    0.40794   0.21787   0.87833   Biso      1.000     O          -0.525937           
         O12       1.0000    0.19217   0.01315   0.62474   Biso      1.000     O          -0.549501           
         O13       1.0000    0.78110   0.72301   0.23115   Biso      1.000     O          -0.597225           
         O14       1.0000    0.09206   0.71787   0.37833   Biso      1.000     O          -0.529517           
         O15       1.0000    0.21890   0.22301   0.76885   Biso      1.000     O          -0.580572           
         O16       1.0000    0.30783   0.51315   0.12474   Biso      1.000     O          -0.569836 