
##########################################################################
#               Crystallographic Information Format file
#               Produced by PyCifRW module
#
#  This is a CIF file.  CIF has been adopted by the International
#  Union of Crystallography as the standard for data archiving and
#  transmission.
#
#  For information on this file format, follow the CIF links at
#  http://www.iucr.org
##########################################################################

data_image0

_cell_length_a                          5.7782
_cell_length_b                          20.4081
_cell_length_c                          16.1009
_cell_angle_alpha                       90
_cell_angle_beta                        94.674
_cell_angle_gamma                       90
_symmetry_space_group_name_H-M          'P 1'
_symmetry_int_tables_number             1
loop_
  _symmetry_equiv_pos_as_xyz
         'x, y, z' 
loop_
  _atom_site_label
  _atom_site_occupancy
  _atom_site_fract_x
  _atom_site_fract_y
  _atom_site_fract_z
  _atom_site_thermal_displace_type
  _atom_site_B_iso_or_equiv
  _atom_site_type_symbol
  _atom_site_charge
         Ag1       1.0000    0.28821   0.53080   0.54090   Biso      1.000     Ag          0.200227  
         Ag2       1.0000    0.80857   0.57300   0.60284   Biso      1.000     Ag          0.223823  
         Ag3       1.0000    0.19143   0.07300   0.89716   Biso      1.000     Ag          0.223823  
         Ag4       1.0000    0.71179   0.03080   0.95910   Biso      1.000     Ag          0.200227  
         Ag5       1.0000    0.80857   0.92700   0.10284   Biso      1.000     Ag          0.223823  
         Ag6       1.0000    0.28821   0.96920   0.04090   Biso      1.000     Ag          0.200227  
         Ag7       1.0000    0.19143   0.42700   0.39716   Biso      1.000     Ag          0.223823  
         Ag8       1.0000    0.71179   0.46920   0.45910   Biso      1.000     Ag          0.200227  
         C1        1.0000    0.00140   0.19427   0.10300   Biso      1.000     C          -0.071306           
         C2        1.0000    0.82760   0.14750   0.09060   Biso      1.000     C          -0.057808000000000005         
         C3        1.0000    0.23920   0.16260   0.72950   Biso      1.000     C          0.079683  
         C4        1.0000    0.67420   0.79520   0.59370   Biso      1.000     C          0.076389  
         C5        1.0000    0.67210   0.83790   0.66030   Biso      1.000     C          -0.21153899999999998          
         C6        1.0000    0.47600   0.87611   0.66960   Biso      1.000     C          0.129329  
         C7        1.0000    0.29180   0.86870   0.60880   Biso      1.000     C          -0.209211           
         C8        1.0000    0.30860   0.82490   0.54390   Biso      1.000     C          0.076875  
         C9        1.0000    0.71180   0.03427   0.24470   Biso      1.000     C          -0.07417699999999999          
         C10       1.0000    0.63440   0.93290   0.80550   Biso      1.000     C          -0.066173           
         C11       1.0000    0.46650   0.92220   0.73920   Biso      1.000     C          -0.070403           
         C12       1.0000    0.47600   0.62389   0.16960   Biso      1.000     C          0.129328  
         C13       1.0000    0.16070   0.17786   0.04450   Biso      1.000     C          -0.061524           
         C14       1.0000    0.21530   0.20980   0.66850   Biso      1.000     C          -0.201753           
         C15       1.0000    0.02560   0.25275   0.66430   Biso      1.000     C          0.13485899999999998           
         C16       1.0000    0.28820   0.96573   0.75530   Biso      1.000     C          -0.07417699999999999          
         C17       1.0000    0.29180   0.63130   0.10880   Biso      1.000     C          -0.209211           
         C18       1.0000    0.67420   0.70480   0.09370   Biso      1.000     C          0.076389  
         C19       1.0000    0.30860   0.67510   0.04390   Biso      1.000     C          0.076875  
         C20       1.0000    0.63440   0.56710   0.30550   Biso      1.000     C          -0.066173           
         C21       1.0000    0.46650   0.57780   0.23920   Biso      1.000     C          -0.070403           
         C22       1.0000    0.82760   0.35250   0.59060   Biso      1.000     C          -0.057807000000000004         
         C23       1.0000    0.28820   0.53427   0.25530   Biso      1.000     C          -0.07417699999999999          
         C24       1.0000    0.90340   0.30530   0.28360   Biso      1.000     C          0.079472  
         C25       1.0000    0.00140   0.30573   0.60300   Biso      1.000     C          -0.07130700000000001          
         C26       1.0000    0.90340   0.19470   0.78360   Biso      1.000     C          0.079472  
         C27       1.0000    0.76080   0.66260   0.77050   Biso      1.000     C          0.079683  
         C28       1.0000    0.23920   0.33740   0.22950   Biso      1.000     C          0.079684  
         C29       1.0000    0.86530   0.24300   0.72470   Biso      1.000     C          -0.20163499999999998          
         C30       1.0000    0.21530   0.29020   0.16850   Biso      1.000     C          -0.201753           
         C31       1.0000    0.02560   0.24725   0.16430   Biso      1.000     C          0.13485999999999998           
         C32       1.0000    0.86530   0.25700   0.22470   Biso      1.000     C          -0.20163499999999998          
         C33       1.0000    0.16070   0.32214   0.54450   Biso      1.000     C          -0.061525           
         C34       1.0000    0.53350   0.07780   0.26080   Biso      1.000     C          -0.07040199999999999          
         C35       1.0000    0.67210   0.66210   0.16030   Biso      1.000     C          -0.21153899999999998          
         C36       1.0000    0.99860   0.69427   0.39700   Biso      1.000     C          -0.071306           
         C37       1.0000    0.36560   0.43290   0.69450   Biso      1.000     C          -0.066173           
         C38       1.0000    0.71180   0.46573   0.74470   Biso      1.000     C          -0.07417699999999999          
         C39       1.0000    0.69140   0.32490   0.95610   Biso      1.000     C          0.076875  
         C40       1.0000    0.83930   0.82214   0.95550   Biso      1.000     C          -0.061524           
         C41       1.0000    0.70820   0.36870   0.89120   Biso      1.000     C          -0.20920999999999998          
         C42       1.0000    0.99860   0.80573   0.89700   Biso      1.000     C          -0.071306           
         C43       1.0000    0.52400   0.37611   0.83040   Biso      1.000     C          0.129328  
         C44       1.0000    0.32790   0.33790   0.83970   Biso      1.000     C          -0.21154  
         C45       1.0000    0.36560   0.06710   0.19450   Biso      1.000     C          -0.066173           
         C46       1.0000    0.13470   0.74300   0.77530   Biso      1.000     C          -0.201646           
         C47       1.0000    0.32580   0.29520   0.90630   Biso      1.000     C          0.076391  
         C48       1.0000    0.17240   0.85250   0.90940   Biso      1.000     C          -0.057808000000000005         
         C49       1.0000    0.17240   0.64750   0.40940   Biso      1.000     C          -0.057808000000000005         
         C50       1.0000    0.53350   0.42220   0.76080   Biso      1.000     C          -0.070403           
         C51       1.0000    0.09660   0.69470   0.71640   Biso      1.000     C          0.079483  
         C52       1.0000    0.78470   0.79020   0.33150   Biso      1.000     C          -0.20176  
         C53       1.0000    0.32580   0.20480   0.40630   Biso      1.000     C          0.076389  
         C54       1.0000    0.09660   0.80530   0.21640   Biso      1.000     C          0.079472  
         C55       1.0000    0.97440   0.75275   0.83570   Biso      1.000     C          0.13486099999999998           
         C56       1.0000    0.78470   0.70980   0.83150   Biso      1.000     C          -0.201753           
         C57       1.0000    0.13470   0.75700   0.27530   Biso      1.000     C          -0.20163499999999998          
         C58       1.0000    0.32790   0.16210   0.33970   Biso      1.000     C          -0.21153899999999998          
         C59       1.0000    0.97440   0.74725   0.33570   Biso      1.000     C          0.13485999999999998           
         C60       1.0000    0.83930   0.67786   0.45550   Biso      1.000     C          -0.061524           
         C61       1.0000    0.52400   0.12389   0.33040   Biso      1.000     C          0.129329  
         C62       1.0000    0.76080   0.83740   0.27050   Biso      1.000     C          0.07969   
         C63       1.0000    0.69140   0.17510   0.45610   Biso      1.000     C          0.076875  
         C64       1.0000    0.70820   0.13130   0.39120   Biso      1.000     C          -0.209211           
         H1        1.0000    0.69300   0.35450   0.62070   Biso      1.000     H          0.11079100000000001           
         H2        1.0000    0.80360   0.65880   0.19960   Biso      1.000     H          0.117278  
         H3        1.0000    0.80910   0.73080   0.08950   Biso      1.000     H          0.07374800000000001           
         H4        1.0000    0.67190   0.71330   0.87110   Biso      1.000     H          0.123227  
         H5        1.0000    0.26900   0.76990   0.77540   Biso      1.000     H          0.121992  
         H6        1.0000    0.20750   0.68920   0.67650   Biso      1.000     H          0.087994  
         H7        1.0000    0.22030   0.08900   0.18720   Biso      1.000     H          0.10871099999999999           
         H8        1.0000    0.73100   0.26990   0.72460   Biso      1.000     H          0.121992  
         H9        1.0000    0.79250   0.18920   0.82350   Biso      1.000     H          0.087995  
         H10       1.0000    0.69920   0.79940   0.96320   Biso      1.000     H          0.10850599999999999           
         H11       1.0000    0.30700   0.85450   0.87930   Biso      1.000     H          0.11079100000000001           
         H12       1.0000    0.19090   0.23080   0.41050   Biso      1.000     H          0.07374800000000001           
         H13       1.0000    0.32810   0.21330   0.62890   Biso      1.000     H          0.123227  
         H14       1.0000    0.36930   0.13410   0.73030   Biso      1.000     H          0.084725  
         H15       1.0000    0.19640   0.15880   0.30040   Biso      1.000     H          0.117278  
         H16       1.0000    0.84580   0.10630   0.38810   Biso      1.000     H          0.11935899999999999           
         H17       1.0000    0.82070   0.17940   0.49610   Biso      1.000     H          0.08357   
         H18       1.0000    0.30080   0.29940   0.53680   Biso      1.000     H          0.10850599999999999           
         H19       1.0000    0.85320   0.02950   0.27860   Biso      1.000     H          0.11793900000000002           
         H20       1.0000    0.36930   0.36590   0.23030   Biso      1.000     H          0.084725  
         H21       1.0000    0.17930   0.67940   0.00390   Biso      1.000     H          0.08357   
         H22       1.0000    0.85320   0.47050   0.77860   Biso      1.000     H          0.11793900000000002           
         H23       1.0000    0.22030   0.41100   0.68720   Biso      1.000     H          0.10871099999999999           
         H24       1.0000    0.82070   0.32060   0.99610   Biso      1.000     H          0.08357   
         H25       1.0000    0.84580   0.39370   0.88810   Biso      1.000     H          0.11935899999999999           
         H26       1.0000    0.19640   0.34120   0.80040   Biso      1.000     H          0.117278  
         H27       1.0000    0.19090   0.26920   0.91050   Biso      1.000     H          0.07374800000000001           
         H28       1.0000    0.30700   0.64550   0.37930   Biso      1.000     H          0.11079100000000001           
         H29       1.0000    0.69920   0.70060   0.46320   Biso      1.000     H          0.10850599999999999           
         H30       1.0000    0.20750   0.81080   0.17650   Biso      1.000     H          0.087995  
         H31       1.0000    0.26900   0.73010   0.27540   Biso      1.000     H          0.121992  
         H32       1.0000    0.67190   0.78670   0.37110   Biso      1.000     H          0.123227  
         H33       1.0000    0.63070   0.86590   0.26970   Biso      1.000     H          0.084725  
         H34       1.0000    0.15420   0.60630   0.11190   Biso      1.000     H          0.11935899999999999           
         H35       1.0000    0.77970   0.91100   0.81280   Biso      1.000     H          0.10871099999999999           
         H36       1.0000    0.17930   0.82060   0.50390   Biso      1.000     H          0.08357   
         H37       1.0000    0.14680   0.97050   0.72140   Biso      1.000     H          0.11793900000000002           
         H38       1.0000    0.80360   0.84120   0.69960   Biso      1.000     H          0.117278  
         H39       1.0000    0.77970   0.58900   0.31280   Biso      1.000     H          0.10871099999999999           
         H40       1.0000    0.14680   0.52950   0.22140   Biso      1.000     H          0.11793800000000002           
         H41       1.0000    0.32810   0.28670   0.12890   Biso      1.000     H          0.123227  
         H42       1.0000    0.15420   0.89370   0.61190   Biso      1.000     H          0.11935899999999999           
         H43       1.0000    0.79250   0.31080   0.32350   Biso      1.000     H          0.087995  
         H44       1.0000    0.30080   0.20060   0.03680   Biso      1.000     H          0.10850599999999999           
         H45       1.0000    0.69300   0.14550   0.12070   Biso      1.000     H          0.11079100000000001           
         H46       1.0000    0.73100   0.23010   0.22460   Biso      1.000     H          0.121992  
         H47       1.0000    0.63070   0.63410   0.76970   Biso      1.000     H          0.084725  
         H48       1.0000    0.80910   0.76920   0.58950   Biso      1.000     H          0.07374800000000001           
         N1        1.0000    0.43890   0.47851   0.64293   Biso      1.000     N          -0.121583           
         N2        1.0000    0.65520   0.49979   0.67474   Biso      1.000     N          -0.127505           
         N3        1.0000    0.50200   0.28798   0.96570   Biso      1.000     N          -0.289627           
         N4        1.0000    0.91680   0.62532   0.49828   Biso      1.000     N          -0.130156           
         N5        1.0000    0.12420   0.60577   0.46946   Biso      1.000     N          -0.121494           
         N6        1.0000    0.91100   0.84535   0.21202   Biso      1.000     N          -0.242606           
         N7        1.0000    0.43890   0.02149   0.14293   Biso      1.000     N          -0.121583           
         N8        1.0000    0.65520   0.00021   0.17474   Biso      1.000     N          -0.127505           
         N9        1.0000    0.08900   0.15465   0.78798   Biso      1.000     N          -0.24260500000000002          
         N10       1.0000    0.87580   0.39423   0.53054   Biso      1.000     N          -0.121499           
         N11       1.0000    0.08320   0.37468   0.50172   Biso      1.000     N          -0.130151           
         N12       1.0000    0.08900   0.34535   0.28798   Biso      1.000     N          -0.24260500000000002          
         N13       1.0000    0.56110   0.52149   0.35707   Biso      1.000     N          -0.121583           
         N14       1.0000    0.50200   0.21202   0.46570   Biso      1.000     N          -0.289627           
         N15       1.0000    0.91680   0.87468   0.99828   Biso      1.000     N          -0.130156           
         N16       1.0000    0.12420   0.89423   0.96946   Biso      1.000     N          -0.121494           
         N17       1.0000    0.91100   0.65465   0.71202   Biso      1.000     N          -0.24260700000000002          
         N18       1.0000    0.56110   0.97851   0.85707   Biso      1.000     N          -0.121583           
         N19       1.0000    0.34480   0.99979   0.82526   Biso      1.000     N          -0.127505           
         N20       1.0000    0.49800   0.78798   0.53430   Biso      1.000     N          -0.289627           
         N21       1.0000    0.08320   0.12532   0.00172   Biso      1.000     N          -0.130156           
         N22       1.0000    0.87580   0.10577   0.03054   Biso      1.000     N          -0.121494           
         N23       1.0000    0.34480   0.50021   0.32526   Biso      1.000     N          -0.127505           
         N24       1.0000    0.49800   0.71202   0.03430   Biso      1.000     N          -0.289627 