
##########################################################################
#               Crystallographic Information Format file
#               Produced by PyCifRW module
#
#  This is a CIF file.  CIF has been adopted by the International
#  Union of Crystallography as the standard for data archiving and
#  transmission.
#
#  For information on this file format, follow the CIF links at
#  http://www.iucr.org
##########################################################################

data_image0

_cell_length_a                          9.5996
_cell_length_b                          9.7638
_cell_length_c                          9.866
_cell_angle_alpha                       88.15
_cell_angle_beta                        77.431
_cell_angle_gamma                       64.293
_symmetry_space_group_name_H-M          'P 1'
_symmetry_int_tables_number             1
loop_
  _symmetry_equiv_pos_as_xyz
         'x, y, z' 
loop_
  _atom_site_label
  _atom_site_occupancy
  _atom_site_fract_x
  _atom_site_fract_y
  _atom_site_fract_z
  _atom_site_thermal_displace_type
  _atom_site_B_iso_or_equiv
  _atom_site_type_symbol
  _atom_site_charge
         C1        1.0000    0.80250   0.89430   0.28700   Biso      1.000     C          0.08872999999999999           
         C2        1.0000    0.19750   0.10570   0.71300   Biso      1.000     C          0.08872999999999999           
         C3        1.0000    0.37030   0.05500   0.11150   Biso      1.000     C          -0.105149           
         C4        1.0000    0.12250   0.45070   0.38400   Biso      1.000     C          -0.128447           
         C5        1.0000    0.01230   0.56570   0.61790   Biso      1.000     C          -0.010735           
         C6        1.0000    0.86460   0.48290   0.50010   Biso      1.000     C          -0.114524           
         C7        1.0000    0.98770   0.43430   0.38210   Biso      1.000     C          -0.010728           
         C8        1.0000    0.24220   0.25900   0.81750   Biso      1.000     C          0.152907  
         C9        1.0000    0.02530   0.63620   0.74390   Biso      1.000     C          0.560686  
         C10       1.0000    0.48780   0.10040   0.10180   Biso      1.000     C          -0.116151           
         C11       1.0000    0.87750   0.54930   0.61600   Biso      1.000     C          -0.128439           
         C12       1.0000    0.97470   0.36380   0.25610   Biso      1.000     C          0.560685  
         C13       1.0000    0.62070   0.04570   0.98950   Biso      1.000     C          -0.0172   
         C14       1.0000    0.24770   0.90950   0.01570   Biso      1.000     C          0.5688449999999999  
         C15       1.0000    0.13540   0.51710   0.49990   Biso      1.000     C          -0.11451900000000001          
         C16       1.0000    0.51220   0.89960   0.89820   Biso      1.000     C          -0.116159           
         C17       1.0000    0.75780   0.74100   0.18250   Biso      1.000     C          0.152907  
         C18       1.0000    0.58390   0.94800   0.50350   Biso      1.000     C          -0.136846           
         C19       1.0000    0.75230   0.09050   0.98430   Biso      1.000     C          0.5688439999999999  
         C20       1.0000    0.37930   0.95430   0.01050   Biso      1.000     C          -0.017197999999999998         
         C21       1.0000    0.62970   0.94500   0.88850   Biso      1.000     C          -0.10514000000000001          
         C22       1.0000    0.41610   0.05200   0.49650   Biso      1.000     C          -0.136847           
         Cd1       1.0000    0.95194   0.22667   0.02831   Biso      1.000     Cd          0.961908  
         Cd2       1.0000    0.04806   0.77333   0.97169   Biso      1.000     Cd          0.961908  
         H1        1.0000    0.23330   0.32790   0.88560   Biso      1.000     H          0.11589300000000001           
         H2        1.0000    0.28320   0.09200   0.18670   Biso      1.000     H          0.11564100000000001           
         H3        1.0000    0.76670   0.67210   0.11440   Biso      1.000     H          0.11589300000000001           
         H4        1.0000    0.20640   0.41670   0.30610   Biso      1.000     H          0.11845   
         H5        1.0000    0.62950   0.00550   0.54090   Biso      1.000     H          0.13156199999999998           
         H6        1.0000    0.71680   0.90800   0.81330   Biso      1.000     H          0.11564   
         H7        1.0000    0.58440   0.86880   0.56550   Biso      1.000     H          0.12620399999999998           
         H8        1.0000    0.37050   0.99450   0.45910   Biso      1.000     H          0.13156099999999998           
         H9        1.0000    0.41560   0.13120   0.43450   Biso      1.000     H          0.12620399999999998           
         H10       1.0000    0.47980   0.16830   0.17040   Biso      1.000     H          0.113553  
         H11       1.0000    0.77330   0.47100   0.50140   Biso      1.000     H          0.123466  
         H12       1.0000    0.22670   0.52900   0.49860   Biso      1.000     H          0.12346700000000001           
         H13       1.0000    0.52020   0.83170   0.82960   Biso      1.000     H          0.113553  
         H14       1.0000    0.84530   0.95680   0.31080   Biso      1.000     H          0.13328299999999998           
         H15       1.0000    0.15470   0.04320   0.68920   Biso      1.000     H          0.13328299999999998           
         H16       1.0000    0.79360   0.58330   0.69390   Biso      1.000     H          0.118449  
         N1        1.0000    0.14530   0.19210   0.83050   Biso      1.000     N          -0.317448           
         N2        1.0000    0.68000   0.87850   0.36590   Biso      1.000     N          0.185614  
         N3        1.0000    0.32000   0.12150   0.63410   Biso      1.000     N          0.185614  
         N4        1.0000    0.85470   0.80790   0.16950   Biso      1.000     N          -0.317448           
         N5        1.0000    0.64840   0.78030   0.29940   Biso      1.000     N          -0.27129699999999995          
         N6        1.0000    0.35160   0.21970   0.70060   Biso      1.000     N          -0.27129699999999995          
         O1        1.0000    0.87940   0.30460   0.26910   Biso      1.000     O          -0.56509  
         O2        1.0000    0.05760   0.36450   0.13950   Biso      1.000     O          -0.5846640000000001           
         O3        1.0000    0.12060   0.69540   0.73090   Biso      1.000     O          -0.56509  
         O4        1.0000    0.88540   0.01590   0.90330   Biso      1.000     O          -0.599729           
         O5        1.0000    0.94240   0.63550   0.86050   Biso      1.000     O          -0.584665           
         O6        1.0000    0.72770   0.19920   0.06430   Biso      1.000     O          -0.529471           
         O7        1.0000    0.11460   0.98410   0.09670   Biso      1.000     O          -0.599729           
         O8        1.0000    0.27230   0.80080   0.93570   Biso      1.000     O          -0.529471 