
##########################################################################
#               Crystallographic Information Format file
#               Produced by PyCifRW module
#
#  This is a CIF file.  CIF has been adopted by the International
#  Union of Crystallography as the standard for data archiving and
#  transmission.
#
#  For information on this file format, follow the CIF links at
#  http://www.iucr.org
##########################################################################

data_image0

_cell_length_a                          10.8512
_cell_length_b                          11.014
_cell_length_c                          17.237
_cell_angle_alpha                       106.171
_cell_angle_beta                        90
_cell_angle_gamma                       90
_symmetry_space_group_name_H-M          'P 1'
_symmetry_int_tables_number             1
loop_
  _symmetry_equiv_pos_as_xyz
         'x, y, z' 
loop_
  _atom_site_label
  _atom_site_occupancy
  _atom_site_fract_x
  _atom_site_fract_y
  _atom_site_fract_z
  _atom_site_thermal_displace_type
  _atom_site_B_iso_or_equiv
  _atom_site_type_symbol
  _atom_site_charge
         C1        1.0000    0.38810   0.41730   0.57910   Biso      1.000     C          -0.137959           
         C2        1.0000    0.97470   0.53500   0.58290   Biso      1.000     C          -0.022022           
         C3        1.0000    0.96750   0.78810   0.97410   Biso      1.000     C          0.059128  
         C4        1.0000    0.56760   0.70180   0.62870   Biso      1.000     C          0.15404   
         C5        1.0000    0.47470   0.96500   0.91710   Biso      1.000     C          -0.022022           
         C6        1.0000    0.46750   0.71190   0.52590   Biso      1.000     C          0.059128999999999994          
         C7        1.0000    0.80770   0.33540   0.84970   Biso      1.000     C          0.064866  
         C8        1.0000    0.67660   0.97310   0.46010   Biso      1.000     C          0.134213  
         C9        1.0000    0.27230   0.35230   0.59570   Biso      1.000     C          -0.132845           
         C10       1.0000    0.85270   0.30210   0.39380   Biso      1.000     C          0.577642  
         C11       1.0000    0.88810   0.08270   0.92090   Biso      1.000     C          -0.137959           
         C12       1.0000    0.22770   0.85230   0.09570   Biso      1.000     C          -0.132845           
         C13       1.0000    0.40890   0.06250   0.96970   Biso      1.000     C          -0.155102           
         C14       1.0000    0.43240   0.29820   0.37130   Biso      1.000     C          0.15404   
         C15       1.0000    0.56180   0.07240   0.17040   Biso      1.000     C          0.590192  
         C16       1.0000    0.03250   0.21190   0.02590   Biso      1.000     C          0.059128999999999994          
         C17       1.0000    0.52530   0.03500   0.08290   Biso      1.000     C          -0.022022999999999997         
         C18       1.0000    0.93270   0.40190   0.44810   Biso      1.000     C          -0.040625           
         C19       1.0000    0.09110   0.56250   0.46970   Biso      1.000     C          -0.155102           
         C20       1.0000    0.93240   0.20180   0.12870   Biso      1.000     C          0.15404   
         C21       1.0000    0.17660   0.52690   0.03990   Biso      1.000     C          0.13421   
         C22       1.0000    0.06760   0.79820   0.87130   Biso      1.000     C          0.15404   
         C23       1.0000    0.72770   0.64770   0.40430   Biso      1.000     C          -0.132847           
         C24       1.0000    0.43270   0.09810   0.05190   Biso      1.000     C          -0.040625           
         C25       1.0000    0.35270   0.19790   0.10620   Biso      1.000     C          0.577643  
         C26       1.0000    0.14730   0.69790   0.60620   Biso      1.000     C          0.577642  
         C27       1.0000    0.56730   0.90190   0.94810   Biso      1.000     C          -0.040625           
         C28       1.0000    0.77230   0.14770   0.90430   Biso      1.000     C          -0.132845           
         C29       1.0000    0.53250   0.28810   0.47410   Biso      1.000     C          0.059128999999999994          
         C30       1.0000    0.90890   0.43750   0.53030   Biso      1.000     C          -0.155102           
         C31       1.0000    0.06730   0.59810   0.55190   Biso      1.000     C          -0.040625           
         C32       1.0000    0.82340   0.47310   0.96010   Biso      1.000     C          0.13421   
         C33       1.0000    0.06180   0.42760   0.32960   Biso      1.000     C          0.590192  
         C34       1.0000    0.11190   0.91730   0.07910   Biso      1.000     C          -0.13796  
         C35       1.0000    0.43820   0.92760   0.82960   Biso      1.000     C          0.590191  
         C36       1.0000    0.59110   0.93750   0.03030   Biso      1.000     C          -0.155102           
         C37       1.0000    0.64730   0.80210   0.89380   Biso      1.000     C          0.577643  
         C38       1.0000    0.93820   0.57240   0.67040   Biso      1.000     C          0.590191  
         C39       1.0000    0.32340   0.02690   0.53990   Biso      1.000     C          0.13421   
         C40       1.0000    0.02530   0.46500   0.41710   Biso      1.000     C          -0.022022999999999997         
         C41       1.0000    0.19230   0.66460   0.15030   Biso      1.000     C          0.064867  
         C42       1.0000    0.61190   0.58270   0.42090   Biso      1.000     C          -0.137959           
         C43       1.0000    0.69230   0.83540   0.34970   Biso      1.000     C          0.06486499999999999           
         C44       1.0000    0.30770   0.16460   0.65030   Biso      1.000     C          0.064867  
         Cd1       1.0000    0.31450   0.87870   0.68443   Biso      1.000     Cd          0.848508  
         Cd2       1.0000    0.68550   0.12130   0.31557   Biso      1.000     Cd          0.848508  
         Cd3       1.0000    0.81450   0.62130   0.81557   Biso      1.000     Cd          0.848508  
         Cd4       1.0000    0.18550   0.37870   0.18443   Biso      1.000     Cd          0.848508  
         H1        1.0000    0.09010   0.78470   0.81690   Biso      1.000     H          0.117816  
         H2        1.0000    0.15280   0.60480   0.44900   Biso      1.000     H          0.11863699999999999           
         H3        1.0000    0.90900   0.76840   0.00900   Biso      1.000     H          0.118973  
         H4        1.0000    0.69630   0.79240   0.29440   Biso      1.000     H          0.124749  
         H5        1.0000    0.12930   0.00710   0.08670   Biso      1.000     H          0.132457  
         H6        1.0000    0.59100   0.26840   0.50900   Biso      1.000     H          0.11897200000000001           
         H7        1.0000    0.75890   0.60390   0.35050   Biso      1.000     H          0.143317  
         H8        1.0000    0.59010   0.71530   0.68310   Biso      1.000     H          0.117816  
         H9        1.0000    0.84720   0.39520   0.55100   Biso      1.000     H          0.11863699999999999           
         H10       1.0000    0.25890   0.89610   0.14950   Biso      1.000     H          0.143317  
         H11       1.0000    0.33380   0.94800   0.50180   Biso      1.000     H          0.10494   
         H12       1.0000    0.16620   0.44800   0.00180   Biso      1.000     H          0.10494   
         H13       1.0000    0.24110   0.39610   0.64950   Biso      1.000     H          0.143317  
         H14       1.0000    0.80370   0.29240   0.79440   Biso      1.000     H          0.124748  
         H15       1.0000    0.66620   0.05200   0.49820   Biso      1.000     H          0.10494   
         H16       1.0000    0.70890   0.14310   0.94390   Biso      1.000     H          0.142073  
         H17       1.0000    0.04820   0.91090   0.11810   Biso      1.000     H          0.121406  
         H18       1.0000    0.20890   0.35690   0.55610   Biso      1.000     H          0.142073  
         H19       1.0000    0.54820   0.58910   0.38190   Biso      1.000     H          0.121405  
         H20       1.0000    0.65280   0.89520   0.05100   Biso      1.000     H          0.11863699999999999           
         H21       1.0000    0.19630   0.70760   0.20560   Biso      1.000     H          0.124749  
         H22       1.0000    0.37070   0.50710   0.58670   Biso      1.000     H          0.132457  
         H23       1.0000    0.83380   0.55200   0.99820   Biso      1.000     H          0.10494   
         H24       1.0000    0.62930   0.49290   0.41330   Biso      1.000     H          0.132457  
         H25       1.0000    0.29110   0.85690   0.05610   Biso      1.000     H          0.142073  
         H26       1.0000    0.95180   0.08910   0.88190   Biso      1.000     H          0.121405  
         H27       1.0000    0.74110   0.10390   0.85050   Biso      1.000     H          0.143317  
         H28       1.0000    0.79110   0.64310   0.44390   Biso      1.000     H          0.142073  
         H29       1.0000    0.09100   0.23160   0.99100   Biso      1.000     H          0.118973  
         H30       1.0000    0.90990   0.21530   0.18310   Biso      1.000     H          0.117816  
         H31       1.0000    0.40900   0.73160   0.49100   Biso      1.000     H          0.118973  
         H32       1.0000    0.45180   0.41090   0.61810   Biso      1.000     H          0.121405  
         H33       1.0000    0.40990   0.28470   0.31690   Biso      1.000     H          0.117816  
         H34       1.0000    0.30370   0.20760   0.70560   Biso      1.000     H          0.124748  
         H35       1.0000    0.87070   0.99290   0.91330   Biso      1.000     H          0.132457  
         H36       1.0000    0.34720   0.10480   0.94900   Biso      1.000     H          0.11863699999999999           
         N1        1.0000    0.69430   0.86880   0.48100   Biso      1.000     N          -0.255702           
         N2        1.0000    0.53490   0.24620   0.39410   Biso      1.000     N          -0.304875           
         N3        1.0000    0.56530   0.63760   0.50260   Biso      1.000     N          0.154307  
         N4        1.0000    0.17450   0.54100   0.12060   Biso      1.000     N          -0.299135           
         N5        1.0000    0.93470   0.13760   0.00260   Biso      1.000     N          0.154306  
         N6        1.0000    0.67450   0.95900   0.37940   Biso      1.000     N          -0.299135           
         N7        1.0000    0.13310   0.86890   0.93130   Biso      1.000     N          -0.259366           
         N8        1.0000    0.46510   0.75380   0.60590   Biso      1.000     N          -0.304875           
         N9        1.0000    0.32550   0.04100   0.62060   Biso      1.000     N          -0.299135           
         N10       1.0000    0.96510   0.74620   0.89410   Biso      1.000     N          -0.304875           
         N11       1.0000    0.43470   0.36240   0.49740   Biso      1.000     N          0.154306  
         N12       1.0000    0.79630   0.28130   0.90890   Biso      1.000     N          0.17863800000000002           
         N13       1.0000    0.36690   0.36890   0.43130   Biso      1.000     N          -0.259359           
         N14       1.0000    0.29630   0.21870   0.59110   Biso      1.000     N          0.17863800000000002           
         N15       1.0000    0.20370   0.71870   0.09110   Biso      1.000     N          0.17863800000000002           
         N16       1.0000    0.80570   0.36880   0.98100   Biso      1.000     N          -0.255679           
         N17       1.0000    0.06530   0.86240   0.99740   Biso      1.000     N          0.154313  
         N18       1.0000    0.19430   0.63120   0.01900   Biso      1.000     N          -0.255679           
         N19       1.0000    0.63310   0.63110   0.56870   Biso      1.000     N          -0.259359           
         N20       1.0000    0.86690   0.13110   0.06870   Biso      1.000     N          -0.259359           
         N21       1.0000    0.30570   0.13120   0.51900   Biso      1.000     N          -0.255679           
         N22       1.0000    0.03490   0.25380   0.10590   Biso      1.000     N          -0.304875           
         N23       1.0000    0.70370   0.78130   0.40890   Biso      1.000     N          0.17865999999999999           
         N24       1.0000    0.82550   0.45900   0.87940   Biso      1.000     N          -0.299135           
         O1        1.0000    0.60550   0.17970   0.20141   Biso      1.000     O          -0.544118           
         O2        1.0000    0.44430   0.01050   0.79160   Biso      1.000     O          -0.603888           
         O3        1.0000    0.18020   0.78840   0.57880   Biso      1.000     O          -0.583242           
         O4        1.0000    0.68050   0.81260   0.82730   Biso      1.000     O          -0.5470470000000001           
         O5        1.0000    0.81950   0.31260   0.32730   Biso      1.000     O          -0.5470470000000001           
         O6        1.0000    0.94430   0.48950   0.70840   Biso      1.000     O          -0.603888           
         O7        1.0000    0.68020   0.71160   0.92120   Biso      1.000     O          -0.583242           
         O8        1.0000    0.39450   0.82030   0.79859   Biso      1.000     O          -0.544118           
         O9        1.0000    0.55570   0.98950   0.20840   Biso      1.000     O          -0.603888           
         O10       1.0000    0.89450   0.67970   0.70141   Biso      1.000     O          -0.544118           
         O11       1.0000    0.81980   0.21160   0.42120   Biso      1.000     O          -0.583242           
         O12       1.0000    0.31950   0.18740   0.17270   Biso      1.000     O          -0.5470470000000001           
         O13       1.0000    0.10550   0.32030   0.29859   Biso      1.000     O          -0.544118           
         O14       1.0000    0.18050   0.68740   0.67270   Biso      1.000     O          -0.5470470000000001           
         O15       1.0000    0.31980   0.28840   0.07880   Biso      1.000     O          -0.583242           
         O16       1.0000    0.05570   0.51050   0.29160   Biso      1.000     O          -0.603888 