
##########################################################################
#               Crystallographic Information Format file
#               Produced by PyCifRW module
#
#  This is a CIF file.  CIF has been adopted by the International
#  Union of Crystallography as the standard for data archiving and
#  transmission.
#
#  For information on this file format, follow the CIF links at
#  http://www.iucr.org
##########################################################################

data_image0

_cell_length_a                          7.177
_cell_length_b                          10.396
_cell_length_c                          11.121
_cell_angle_alpha                       90
_cell_angle_beta                        90
_cell_angle_gamma                       90
_symmetry_space_group_name_H-M          'P 1'
_symmetry_int_tables_number             1
loop_
  _symmetry_equiv_pos_as_xyz
         'x, y, z' 
loop_
  _atom_site_label
  _atom_site_occupancy
  _atom_site_fract_x
  _atom_site_fract_y
  _atom_site_fract_z
  _atom_site_thermal_displace_type
  _atom_site_B_iso_or_equiv
  _atom_site_type_symbol
  _atom_site_charge
         C1        1.0000    0.53650   0.28260   0.90942   Biso      1.000     C          0.6012430000000001  
         C2        1.0000    0.83780   0.02460   0.66171   Biso      1.000     C          0.639846  
         C3        1.0000    0.71120   0.07650   0.75991   Biso      1.000     C          -0.32269899999999996          
         C4        1.0000    0.56060   0.16520   0.71338   Biso      1.000     C          -0.207423           
         C5        1.0000    0.42800   0.21340   0.81014   Biso      1.000     C          0.06758600000000001           
         C6        1.0000    0.66220   0.97540   0.16171   Biso      1.000     C          0.639847  
         C7        1.0000    0.78880   0.92350   0.25991   Biso      1.000     C          -0.32269899999999996          
         C8        1.0000    0.93940   0.83480   0.21338   Biso      1.000     C          -0.207423           
         C9        1.0000    0.07200   0.78660   0.31014   Biso      1.000     C          0.06758600000000001           
         C10       1.0000    0.16220   0.52460   0.83829   Biso      1.000     C          0.639846  
         C11       1.0000    0.96350   0.71740   0.40942   Biso      1.000     C          0.6012430000000001  
         C12       1.0000    0.43940   0.66520   0.78662   Biso      1.000     C          -0.20742399999999997          
         C13       1.0000    0.46350   0.78260   0.59058   Biso      1.000     C          0.6012430000000001  
         C14       1.0000    0.57200   0.71340   0.68986   Biso      1.000     C          0.06758600000000001           
         C15       1.0000    0.33780   0.47540   0.33829   Biso      1.000     C          0.639846  
         C16       1.0000    0.21120   0.42350   0.24009   Biso      1.000     C          -0.32269899999999996          
         C17       1.0000    0.06060   0.33480   0.28662   Biso      1.000     C          -0.207423           
         C18       1.0000    0.03650   0.21740   0.09058   Biso      1.000     C          0.6012430000000001  
         C19       1.0000    0.92800   0.28660   0.18986   Biso      1.000     C          0.06758600000000001           
         C20       1.0000    0.28880   0.57650   0.74009   Biso      1.000     C          -0.32269899999999996          
         H1        1.0000    0.12030   0.25970   0.32570   Biso      1.000     H          0.116452  
         H2        1.0000    0.69900   0.37100   0.13400   Biso      1.000     H          0.337372  
         H3        1.0000    0.84160   0.22290   0.22770   Biso      1.000     H          0.096195  
         H4        1.0000    0.98770   0.38080   0.34870   Biso      1.000     H          0.10919200000000001           
         H5        1.0000    0.15190   0.49680   0.19800   Biso      1.000     H          0.135999  
         H6        1.0000    0.81300   0.45900   0.18400   Biso      1.000     H          0.33770900000000004           
         H7        1.0000    0.80100   0.62900   0.63400   Biso      1.000     H          0.337372  
         H8        1.0000    0.78790   0.12360   0.81940   Biso      1.000     H          0.13983099999999998           
         H9        1.0000    0.65190   0.00320   0.80200   Biso      1.000     H          0.135999  
         H10       1.0000    0.62030   0.24030   0.67430   Biso      1.000     H          0.116452  
         H11       1.0000    0.48770   0.11920   0.65130   Biso      1.000     H          0.10919200000000001           
         H12       1.0000    0.34160   0.27710   0.77230   Biso      1.000     H          0.096195  
         H13       1.0000    0.28790   0.37640   0.18060   Biso      1.000     H          0.13983099999999998           
         H14       1.0000    0.19900   0.12900   0.86600   Biso      1.000     H          0.337371  
         H15       1.0000    0.71210   0.87640   0.31940   Biso      1.000     H          0.13983099999999998           
         H16       1.0000    0.84810   0.99680   0.30200   Biso      1.000     H          0.135999  
         H17       1.0000    0.87970   0.75970   0.17430   Biso      1.000     H          0.116452  
         H18       1.0000    0.01230   0.88080   0.15130   Biso      1.000     H          0.10919200000000001           
         H19       1.0000    0.31300   0.04100   0.81600   Biso      1.000     H          0.33770900000000004           
         H20       1.0000    0.18700   0.95900   0.31600   Biso      1.000     H          0.33770900000000004           
         H21       1.0000    0.30100   0.87100   0.36600   Biso      1.000     H          0.337371  
         H22       1.0000    0.21210   0.62360   0.68060   Biso      1.000     H          0.13983099999999998           
         H23       1.0000    0.34810   0.50320   0.69800   Biso      1.000     H          0.135999  
         H24       1.0000    0.37970   0.74030   0.82570   Biso      1.000     H          0.116452  
         H25       1.0000    0.51230   0.61920   0.84870   Biso      1.000     H          0.10919200000000001           
         H26       1.0000    0.65840   0.77710   0.72770   Biso      1.000     H          0.096194  
         H27       1.0000    0.68700   0.54100   0.68400   Biso      1.000     H          0.33770900000000004           
         H28       1.0000    0.15840   0.72290   0.27230   Biso      1.000     H          0.096194  
         N1        1.0000    0.81440   0.39148   0.13905   Biso      1.000     N          -0.6781729999999999           
         N2        1.0000    0.31440   0.10852   0.86095   Biso      1.000     N          -0.678172           
         N3        1.0000    0.18560   0.89148   0.36095   Biso      1.000     N          -0.678172           
         N4        1.0000    0.68560   0.60852   0.63905   Biso      1.000     N          -0.678172           
         O1        1.0000    0.86000   0.62700   0.37486   Biso      1.000     O          -0.553764           
         O2        1.0000    0.01610   0.46448   0.80324   Biso      1.000     O          -0.576363           
         O3        1.0000    0.19760   0.53898   0.94679   Biso      1.000     O          -0.57699  
         O4        1.0000    0.36000   0.87300   0.62514   Biso      1.000     O          -0.553764           
         O5        1.0000    0.48390   0.53552   0.30324   Biso      1.000     O          -0.576363           
         O6        1.0000    0.97960   0.75509   0.51569   Biso      1.000     O          -0.530779           
         O7        1.0000    0.47960   0.74491   0.48431   Biso      1.000     O          -0.530779           
         O8        1.0000    0.30240   0.46102   0.44679   Biso      1.000     O          -0.5769890000000001           
         O9        1.0000    0.69760   0.96102   0.05321   Biso      1.000     O          -0.5769890000000001           
         O10       1.0000    0.14000   0.12700   0.12514   Biso      1.000     O          -0.553764           
         O11       1.0000    0.64000   0.37300   0.87486   Biso      1.000     O          -0.553764           
         O12       1.0000    0.52040   0.24491   0.01569   Biso      1.000     O          -0.530779           
         O13       1.0000    0.80240   0.03898   0.55321   Biso      1.000     O          -0.57699  
         O14       1.0000    0.98390   0.96448   0.69676   Biso      1.000     O          -0.576363           
         O15       1.0000    0.02040   0.25509   0.98431   Biso      1.000     O          -0.53078  
         O16       1.0000    0.51610   0.03552   0.19676   Biso      1.000     O          -0.576363           
         Zn1       1.0000    0.87744   0.42909   0.95909   Biso      1.000     Zn          0.864767  
         Zn2       1.0000    0.62256   0.57091   0.45909   Biso      1.000     Zn          0.864766  
         Zn3       1.0000    0.12256   0.92909   0.54091   Biso      1.000     Zn          0.864766  
         Zn4       1.0000    0.37744   0.07091   0.04091   Biso      1.000     Zn          0.864766 