
##########################################################################
#               Crystallographic Information Format file
#               Produced by PyCifRW module
#
#  This is a CIF file.  CIF has been adopted by the International
#  Union of Crystallography as the standard for data archiving and
#  transmission.
#
#  For information on this file format, follow the CIF links at
#  http://www.iucr.org
##########################################################################

data_image0

_cell_length_a                          7.22
_cell_length_b                          10.463
_cell_length_c                          11.19
_cell_angle_alpha                       90
_cell_angle_beta                        90
_cell_angle_gamma                       90
_symmetry_space_group_name_H-M          'P 1'
_symmetry_int_tables_number             1
loop_
  _symmetry_equiv_pos_as_xyz
         'x, y, z' 
loop_
  _atom_site_label
  _atom_site_occupancy
  _atom_site_fract_x
  _atom_site_fract_y
  _atom_site_fract_z
  _atom_site_thermal_displace_type
  _atom_site_B_iso_or_equiv
  _atom_site_type_symbol
  _atom_site_charge
         C1        1.0000    0.03610   0.67250   0.49040   Biso      1.000     C          -0.275765           
         C2        1.0000    0.21020   0.46970   0.33990   Biso      1.000     C          0.5845    
         C3        1.0000    0.31860   0.53770   0.43950   Biso      1.000     C          0.085078  
         C4        1.0000    0.18720   0.58430   0.53590   Biso      1.000     C          -0.22618000000000002          
         C5        1.0000    0.91210   0.72480   0.58900   Biso      1.000     C          0.622115  
         C6        1.0000    0.71020   0.53030   0.16010   Biso      1.000     C          0.5845    
         C7        1.0000    0.81860   0.46230   0.06050   Biso      1.000     C          0.085079  
         C8        1.0000    0.68720   0.41570   0.96410   Biso      1.000     C          -0.22618000000000002          
         C9        1.0000    0.41210   0.27520   0.91100   Biso      1.000     C          0.622115  
         C10       1.0000    0.28980   0.96970   0.66010   Biso      1.000     C          0.584501  
         C11       1.0000    0.53610   0.32750   0.00960   Biso      1.000     C          -0.275765           
         C12       1.0000    0.31280   0.08430   0.46410   Biso      1.000     C          -0.22618000000000002          
         C13       1.0000    0.46390   0.17250   0.50960   Biso      1.000     C          -0.275765           
         C14       1.0000    0.58790   0.22480   0.41100   Biso      1.000     C          0.622115  
         C15       1.0000    0.78980   0.03030   0.83990   Biso      1.000     C          0.5845    
         C16       1.0000    0.68140   0.96230   0.93950   Biso      1.000     C          0.085079  
         C17       1.0000    0.81280   0.91570   0.03590   Biso      1.000     C          -0.22618000000000002          
         C18       1.0000    0.96390   0.82750   0.99040   Biso      1.000     C          -0.275765           
         C19       1.0000    0.08790   0.77520   0.08900   Biso      1.000     C          0.622115  
         C20       1.0000    0.18140   0.03770   0.56050   Biso      1.000     C          0.085079  
         H1        1.0000    0.75200   0.87100   0.09900   Biso      1.000     H          0.12161   
         H2        1.0000    0.60200   0.79100   0.92600   Biso      1.000     H          0.34079   
         H3        1.0000    0.88000   0.74300   0.95600   Biso      1.000     H          0.10389300000000001           
         H4        1.0000    0.05000   0.86800   0.92700   Biso      1.000     H          0.13963299999999998           
         H5        1.0000    0.87100   0.99700   0.07400   Biso      1.000     H          0.11503800000000002           
         H6        1.0000    0.45100   0.86800   0.87900   Biso      1.000     H          0.356683  
         H7        1.0000    0.10200   0.20900   0.57400   Biso      1.000     H          0.34079   
         H8        1.0000    0.40100   0.46000   0.47600   Biso      1.000     H          0.089184  
         H9        1.0000    0.12900   0.50300   0.57400   Biso      1.000     H          0.11503699999999999           
         H10       1.0000    0.24800   0.62900   0.59900   Biso      1.000     H          0.12161   
         H11       1.0000    0.95000   0.63200   0.42700   Biso      1.000     H          0.13963299999999998           
         H12       1.0000    0.12000   0.75700   0.45600   Biso      1.000     H          0.10389300000000001           
         H13       1.0000    0.59900   0.04000   0.97600   Biso      1.000     H          0.089184  
         H14       1.0000    0.39800   0.70900   0.42600   Biso      1.000     H          0.340789  
         H15       1.0000    0.90100   0.54000   0.02400   Biso      1.000     H          0.089184  
         H16       1.0000    0.62900   0.49700   0.92600   Biso      1.000     H          0.11503699999999999           
         H17       1.0000    0.74800   0.37100   0.90100   Biso      1.000     H          0.12161   
         H18       1.0000    0.45000   0.36800   0.07300   Biso      1.000     H          0.13963299999999998           
         H19       1.0000    0.54900   0.63200   0.37900   Biso      1.000     H          0.356683  
         H20       1.0000    0.04900   0.36800   0.12100   Biso      1.000     H          0.356683  
         H21       1.0000    0.89800   0.29100   0.07400   Biso      1.000     H          0.340789  
         H22       1.0000    0.09900   0.96000   0.52400   Biso      1.000     H          0.089184  
         H23       1.0000    0.37100   0.00300   0.42600   Biso      1.000     H          0.11503699999999999           
         H24       1.0000    0.25200   0.12900   0.40100   Biso      1.000     H          0.12161   
         H25       1.0000    0.55000   0.13200   0.57300   Biso      1.000     H          0.13963299999999998           
         H26       1.0000    0.38000   0.25700   0.54400   Biso      1.000     H          0.10389200000000001           
         H27       1.0000    0.95100   0.13200   0.62100   Biso      1.000     H          0.356683  
         H28       1.0000    0.62000   0.24300   0.04400   Biso      1.000     H          0.10389200000000001           
         N1        1.0000    0.56740   0.85810   0.88980   Biso      1.000     N          -0.694948           
         N2        1.0000    0.43260   0.64190   0.38980   Biso      1.000     N          -0.694948           
         N3        1.0000    0.93260   0.35810   0.11020   Biso      1.000     N          -0.694948           
         N4        1.0000    0.06740   0.14190   0.61020   Biso      1.000     N          -0.694948           
         O1        1.0000    0.44460   0.29140   0.80280   Biso      1.000     O          -0.57527  
         O2        1.0000    0.27360   0.00650   0.76540   Biso      1.000     O          -0.5215310000000001           
         O3        1.0000    0.39290   0.87880   0.62540   Biso      1.000     O          -0.557872           
         O4        1.0000    0.55540   0.20860   0.30280   Biso      1.000     O          -0.575271           
         O5        1.0000    0.77360   0.99350   0.73460   Biso      1.000     O          -0.52153  
         O6        1.0000    0.26580   0.21530   0.94580   Biso      1.000     O          -0.570367           
         O7        1.0000    0.73420   0.28470   0.44580   Biso      1.000     O          -0.570367           
         O8        1.0000    0.89290   0.12120   0.87460   Biso      1.000     O          -0.557872           
         O9        1.0000    0.60710   0.62120   0.12540   Biso      1.000     O          -0.557873           
         O10       1.0000    0.05540   0.79140   0.19720   Biso      1.000     O          -0.575271           
         O11       1.0000    0.94460   0.70860   0.69720   Biso      1.000     O          -0.575271           
         O12       1.0000    0.76580   0.78470   0.55420   Biso      1.000     O          -0.570367           
         O13       1.0000    0.10710   0.37880   0.37460   Biso      1.000     O          -0.557872           
         O14       1.0000    0.22640   0.50650   0.23460   Biso      1.000     O          -0.5215310000000001           
         O15       1.0000    0.23420   0.71530   0.05420   Biso      1.000     O          -0.570367           
         O16       1.0000    0.72640   0.49350   0.26540   Biso      1.000     O          -0.52153  
         Zn1       1.0000    0.62790   0.82120   0.70920   Biso      1.000     Zn          0.863411  
         Zn2       1.0000    0.12790   0.17880   0.79080   Biso      1.000     Zn          0.863409  
         Zn3       1.0000    0.87210   0.32120   0.29080   Biso      1.000     Zn          0.863409  
         Zn4       1.0000    0.37210   0.67880   0.20920   Biso      1.000     Zn          0.8634120000000001 