
##########################################################################
#               Crystallographic Information Format file
#               Produced by PyCifRW module
#
#  This is a CIF file.  CIF has been adopted by the International
#  Union of Crystallography as the standard for data archiving and
#  transmission.
#
#  For information on this file format, follow the CIF links at
#  http://www.iucr.org
##########################################################################

data_image0

_cell_length_a                          15.93
_cell_length_b                          13.588
_cell_length_c                          6.663
_cell_angle_alpha                       90
_cell_angle_beta                        97.392
_cell_angle_gamma                       90
_symmetry_space_group_name_H-M          'P 1'
_symmetry_int_tables_number             1
loop_
  _symmetry_equiv_pos_as_xyz
         'x, y, z' 
loop_
  _atom_site_label
  _atom_site_occupancy
  _atom_site_fract_x
  _atom_site_fract_y
  _atom_site_fract_z
  _atom_site_thermal_displace_type
  _atom_site_B_iso_or_equiv
  _atom_site_type_symbol
  _atom_site_charge
         C1        1.0000    0.64230   0.11440   0.97820   Biso      1.000     C          0.586591  
         C2        1.0000    0.58640   0.20420   0.94220   Biso      1.000     C          -0.046702           
         C3        1.0000    0.49930   0.19720   0.90700   Biso      1.000     C          -0.072217           
         C4        1.0000    0.54850   0.71660   0.12300   Biso      1.000     C          -0.10107  
         C5        1.0000    0.10070   0.45240   0.17100   Biso      1.000     C          0.658758  
         C6        1.0000    0.01870   0.45390   0.01100   Biso      1.000     C          -0.293898           
         C7        1.0000    0.98130   0.54610   0.98900   Biso      1.000     C          -0.293894           
         C8        1.0000    0.89930   0.54760   0.82900   Biso      1.000     C          0.658757  
         C9        1.0000    0.35770   0.88560   0.02180   Biso      1.000     C          0.586591  
         C10       1.0000    0.50070   0.80280   0.09300   Biso      1.000     C          -0.072217           
         C11       1.0000    0.41360   0.79580   0.05780   Biso      1.000     C          -0.046702           
         C12       1.0000    0.35670   0.21610   0.34250   Biso      1.000     C          0.703772  
         C13       1.0000    0.45150   0.21660   0.37700   Biso      1.000     C          -0.10107  
         C14       1.0000    0.49440   0.12620   0.37890   Biso      1.000     C          0.081705  
         C15       1.0000    0.62320   0.20250   0.44480   Biso      1.000     C          0.059136  
         C16       1.0000    0.58640   0.29580   0.44220   Biso      1.000     C          -0.046702           
         C17       1.0000    0.49930   0.30280   0.40700   Biso      1.000     C          -0.072217           
         C18       1.0000    0.64230   0.38560   0.47820   Biso      1.000     C          0.586591  
         C19       1.0000    0.10070   0.04760   0.67100   Biso      1.000     C          0.658759  
         C20       1.0000    0.01870   0.04610   0.51100   Biso      1.000     C          -0.293899           
         C21       1.0000    0.37680   0.70250   0.05520   Biso      1.000     C          0.059136  
         C22       1.0000    0.50560   0.62620   0.12110   Biso      1.000     C          0.081705  
         C23       1.0000    0.62320   0.29750   0.94480   Biso      1.000     C          0.059136  
         C24       1.0000    0.49440   0.37380   0.87890   Biso      1.000     C          0.081705  
         C25       1.0000    0.64330   0.71610   0.15750   Biso      1.000     C          0.703772  
         C26       1.0000    0.35670   0.28390   0.84250   Biso      1.000     C          0.703772  
         C27       1.0000    0.89930   0.95240   0.32900   Biso      1.000     C          0.658758  
         C28       1.0000    0.35770   0.61440   0.52180   Biso      1.000     C          0.586591  
         C29       1.0000    0.50070   0.69720   0.59300   Biso      1.000     C          -0.072217           
         C30       1.0000    0.41360   0.70420   0.55780   Biso      1.000     C          -0.046702           
         C31       1.0000    0.98130   0.95390   0.48900   Biso      1.000     C          -0.293895           
         C32       1.0000    0.37680   0.79750   0.55520   Biso      1.000     C          0.059136  
         C33       1.0000    0.45150   0.28340   0.87700   Biso      1.000     C          -0.101071           
         C34       1.0000    0.50560   0.87380   0.62110   Biso      1.000     C          0.081706  
         C35       1.0000    0.54850   0.78340   0.62300   Biso      1.000     C          -0.101071           
         C36       1.0000    0.64330   0.78390   0.65750   Biso      1.000     C          0.703773  
         H1        1.0000    0.03350   0.06750   0.38120   Biso      1.000     H          0.133439  
         H2        1.0000    0.31810   0.80220   0.53090   Biso      1.000     H          0.102859  
         H3        1.0000    0.97810   0.09270   0.55240   Biso      1.000     H          0.145688  
         H4        1.0000    0.68190   0.19780   0.46910   Biso      1.000     H          0.102859  
         H5        1.0000    0.46300   0.06880   0.35470   Biso      1.000     H          0.105779  
         H6        1.0000    0.52710   0.63610   0.59680   Biso      1.000     H          0.128741  
         H7        1.0000    0.53700   0.56880   0.14530   Biso      1.000     H          0.105779  
         H8        1.0000    0.53700   0.93120   0.64530   Biso      1.000     H          0.105779  
         H9        1.0000    0.47290   0.36390   0.40320   Biso      1.000     H          0.128741  
         H10       1.0000    0.31810   0.69780   0.03090   Biso      1.000     H          0.102859  
         H11       1.0000    0.52710   0.86390   0.09680   Biso      1.000     H          0.128741  
         H12       1.0000    0.02190   0.90730   0.44760   Biso      1.000     H          0.145688  
         H13       1.0000    0.46300   0.43120   0.85470   Biso      1.000     H          0.105779  
         H14       1.0000    0.97810   0.40730   0.05240   Biso      1.000     H          0.145688  
         H15       1.0000    0.03350   0.43250   0.88120   Biso      1.000     H          0.133439  
         H16       1.0000    0.96650   0.56750   0.11880   Biso      1.000     H          0.133439  
         H17       1.0000    0.68190   0.30220   0.96910   Biso      1.000     H          0.102859  
         H18       1.0000    0.96650   0.93250   0.61880   Biso      1.000     H          0.133439  
         H19       1.0000    0.47290   0.13610   0.90320   Biso      1.000     H          0.128741  
         H20       1.0000    0.02190   0.59270   0.94760   Biso      1.000     H          0.145687  
         N1        1.0000    0.42160   0.88050   0.58600   Biso      1.000     N          -0.274572           
         N2        1.0000    0.57840   0.38050   0.91400   Biso      1.000     N          -0.274572           
         N3        1.0000    0.42160   0.61950   0.08600   Biso      1.000     N          -0.274572           
         N4        1.0000    0.57840   0.11950   0.41400   Biso      1.000     N          -0.274572           
         O1        1.0000    0.68060   0.63800   0.20990   Biso      1.000     O          -0.699443           
         O2        1.0000    0.28130   0.87550   0.95050   Biso      1.000     O          -0.647977           
         O3        1.0000    0.38980   0.96910   0.06300   Biso      1.000     O          -0.630128           
         O4        1.0000    0.67960   0.79560   0.13330   Biso      1.000     O          -0.693005           
         O5        1.0000    0.15100   0.38300   0.16060   Biso      1.000     O          -0.682618           
         O6        1.0000    0.84900   0.61700   0.83940   Biso      1.000     O          -0.682618           
         O7        1.0000    0.71870   0.12450   0.04950   Biso      1.000     O          -0.647977           
         O8        1.0000    0.88860   0.01330   0.18500   Biso      1.000     O          -0.668636           
         O9        1.0000    0.84900   0.88300   0.33940   Biso      1.000     O          -0.682619           
         O10       1.0000    0.67960   0.70440   0.63330   Biso      1.000     O          -0.693005           
         O11       1.0000    0.31940   0.36200   0.79010   Biso      1.000     O          -0.699443           
         O12       1.0000    0.32040   0.20440   0.86670   Biso      1.000     O          -0.693005           
         O13       1.0000    0.15100   0.11700   0.66060   Biso      1.000     O          -0.682619           
         O14       1.0000    0.61020   0.03090   0.93700   Biso      1.000     O          -0.630128           
         O15       1.0000    0.11140   0.51330   0.31500   Biso      1.000     O          -0.668636           
         O16       1.0000    0.88860   0.48670   0.68500   Biso      1.000     O          -0.668635           
         O17       1.0000    0.68060   0.86200   0.70990   Biso      1.000     O          -0.699443           
         O18       1.0000    0.31940   0.13800   0.29010   Biso      1.000     O          -0.699443           
         O19       1.0000    0.32040   0.29560   0.36670   Biso      1.000     O          -0.693005           
         O20       1.0000    0.71870   0.37550   0.54950   Biso      1.000     O          -0.647977           
         O21       1.0000    0.61020   0.46910   0.43700   Biso      1.000     O          -0.630128           
         O22       1.0000    0.11140   0.98670   0.81500   Biso      1.000     O          -0.668636           
         O23       1.0000    0.38980   0.53090   0.56300   Biso      1.000     O          -0.630128           
         O24       1.0000    0.28130   0.62450   0.45050   Biso      1.000     O          -0.647977           
         Pr1       1.0000    0.74945   0.55996   0.52861   Biso      1.000     Pr          2.103797  
         Pr2       1.0000    0.25055   0.05996   0.97139   Biso      1.000     Pr          2.103796  
         Pr3       1.0000    0.25055   0.44004   0.47139   Biso      1.000     Pr          2.103797  
         Pr4       1.0000    0.74945   0.94004   0.02861   Biso      1.000     Pr          2.103796 