
##########################################################################
#               Crystallographic Information Format file
#               Produced by PyCifRW module
#
#  This is a CIF file.  CIF has been adopted by the International
#  Union of Crystallography as the standard for data archiving and
#  transmission.
#
#  For information on this file format, follow the CIF links at
#  http://www.iucr.org
##########################################################################

data_image0

_cell_length_a                          15.9131
_cell_length_b                          13.5396
_cell_length_c                          6.6475
_cell_angle_alpha                       90
_cell_angle_beta                        97.662
_cell_angle_gamma                       90
_symmetry_space_group_name_H-M          'P 1'
_symmetry_int_tables_number             1
loop_
  _symmetry_equiv_pos_as_xyz
         'x, y, z' 
loop_
  _atom_site_label
  _atom_site_occupancy
  _atom_site_fract_x
  _atom_site_fract_y
  _atom_site_fract_z
  _atom_site_thermal_displace_type
  _atom_site_B_iso_or_equiv
  _atom_site_type_symbol
  _atom_site_charge
         C1        1.0000    0.89910   0.54960   0.33000   Biso      1.000     C          0.645066  
         C2        1.0000    0.45180   0.21570   0.87650   Biso      1.000     C          -0.073835           
         C3        1.0000    0.49900   0.30270   0.90760   Biso      1.000     C          -0.090124           
         C4        1.0000    0.35620   0.21710   0.83950   Biso      1.000     C          0.63457   
         C5        1.0000    0.97860   0.54760   0.48780   Biso      1.000     C          -0.29795  
         C6        1.0000    0.02140   0.45240   0.51220   Biso      1.000     C          -0.297953           
         C7        1.0000    0.10090   0.45040   0.67000   Biso      1.000     C          0.645085  
         C8        1.0000    0.64380   0.78290   0.16050   Biso      1.000     C          0.634568  
         C9        1.0000    0.50100   0.69730   0.09240   Biso      1.000     C          -0.09012300000000001          
         C10       1.0000    0.64180   0.11320   0.48000   Biso      1.000     C          0.563797  
         C11       1.0000    0.58660   0.20380   0.44490   Biso      1.000     C          -0.048223           
         C12       1.0000    0.62330   0.29720   0.44800   Biso      1.000     C          0.047432999999999996          
         C13       1.0000    0.49510   0.37350   0.38000   Biso      1.000     C          0.060011  
         C14       1.0000    0.45180   0.28430   0.37650   Biso      1.000     C          -0.07383300000000001          
         C15       1.0000    0.49900   0.19730   0.40760   Biso      1.000     C          -0.090125           
         C16       1.0000    0.35620   0.28290   0.33950   Biso      1.000     C          0.6345649999999999  
         C17       1.0000    0.89910   0.95040   0.83000   Biso      1.000     C          0.645042  
         C18       1.0000    0.97860   0.95240   0.98780   Biso      1.000     C          -0.29794699999999996          
         C19       1.0000    0.54820   0.78430   0.12350   Biso      1.000     C          -0.073837           
         C20       1.0000    0.50490   0.87350   0.12000   Biso      1.000     C          0.060016999999999994          
         C21       1.0000    0.37670   0.79720   0.05200   Biso      1.000     C          0.047442000000000005          
         C22       1.0000    0.41340   0.70380   0.05510   Biso      1.000     C          -0.04822  
         C23       1.0000    0.49510   0.12650   0.88000   Biso      1.000     C          0.060012  
         C24       1.0000    0.62330   0.20280   0.94800   Biso      1.000     C          0.047439  
         C25       1.0000    0.35820   0.61320   0.02000   Biso      1.000     C          0.563749  
         C26       1.0000    0.64180   0.38680   0.98000   Biso      1.000     C          0.563761  
         C27       1.0000    0.35820   0.88680   0.52000   Biso      1.000     C          0.563783  
         C28       1.0000    0.41340   0.79620   0.55510   Biso      1.000     C          -0.048222           
         C29       1.0000    0.37670   0.70280   0.55200   Biso      1.000     C          0.047431  
         C30       1.0000    0.50490   0.62650   0.62000   Biso      1.000     C          0.060008000000000006          
         C31       1.0000    0.54820   0.71570   0.62350   Biso      1.000     C          -0.07383200000000001          
         C32       1.0000    0.50100   0.80270   0.59240   Biso      1.000     C          -0.090128           
         C33       1.0000    0.64380   0.71710   0.66050   Biso      1.000     C          0.63456   
         C34       1.0000    0.10090   0.04960   0.17000   Biso      1.000     C          0.645042  
         C35       1.0000    0.58660   0.29620   0.94490   Biso      1.000     C          -0.048219           
         C36       1.0000    0.02140   0.04760   0.01220   Biso      1.000     C          -0.29794699999999996          
         Eu1       1.0000    0.25087   0.06030   0.46874   Biso      1.000     Eu          1.422831  
         Eu2       1.0000    0.74913   0.56030   0.03126   Biso      1.000     Eu          1.422833  
         Eu3       1.0000    0.74913   0.93970   0.53126   Biso      1.000     Eu          1.4228379999999998  
         Eu4       1.0000    0.25087   0.43970   0.96874   Biso      1.000     Eu          1.422833  
         H1        1.0000    0.68210   0.19860   0.97500   Biso      1.000     H          0.11195899999999999           
         H2        1.0000    0.31790   0.80140   0.02500   Biso      1.000     H          0.11195799999999999           
         H3        1.0000    0.46360   0.06880   0.85690   Biso      1.000     H          0.10625799999999999           
         H4        1.0000    0.53640   0.93120   0.14310   Biso      1.000     H          0.10626   
         H5        1.0000    0.31790   0.69860   0.52500   Biso      1.000     H          0.11196099999999999           
         H6        1.0000    0.96290   0.93260   0.11790   Biso      1.000     H          0.136452  
         H7        1.0000    0.01840   0.90380   0.94960   Biso      1.000     H          0.149887  
         H8        1.0000    0.03710   0.43260   0.38210   Biso      1.000     H          0.136453  
         H9        1.0000    0.53640   0.56880   0.64310   Biso      1.000     H          0.106261  
         H10       1.0000    0.47220   0.13620   0.40320   Biso      1.000     H          0.135768  
         H11       1.0000    0.47220   0.36380   0.90320   Biso      1.000     H          0.135768  
         H12       1.0000    0.96290   0.56740   0.61790   Biso      1.000     H          0.136452  
         H13       1.0000    0.46360   0.43120   0.35690   Biso      1.000     H          0.106261  
         H14       1.0000    0.68210   0.30140   0.47500   Biso      1.000     H          0.11196099999999999           
         H15       1.0000    0.98160   0.09620   0.05040   Biso      1.000     H          0.14988800000000002           
         H16       1.0000    0.03710   0.06740   0.88210   Biso      1.000     H          0.136452  
         H17       1.0000    0.52780   0.63620   0.09680   Biso      1.000     H          0.135766  
         H18       1.0000    0.98160   0.40380   0.55040   Biso      1.000     H          0.149892  
         H19       1.0000    0.01840   0.59620   0.44960   Biso      1.000     H          0.14988900000000002           
         H20       1.0000    0.52780   0.86380   0.59680   Biso      1.000     H          0.135768  
         N1        1.0000    0.42040   0.88110   0.08530   Biso      1.000     N          -0.172699           
         N2        1.0000    0.57960   0.38110   0.41470   Biso      1.000     N          -0.17268499999999998          
         N3        1.0000    0.42040   0.61890   0.58530   Biso      1.000     N          -0.172681           
         N4        1.0000    0.57960   0.11890   0.91470   Biso      1.000     N          -0.172684           
         O1        1.0000    0.38910   0.53010   0.06170   Biso      1.000     O          -0.531037           
         O2        1.0000    0.28170   0.62420   0.94810   Biso      1.000     O          -0.567108           
         O3        1.0000    0.67980   0.70360   0.13250   Biso      1.000     O          -0.564591           
         O4        1.0000    0.68070   0.86270   0.21140   Biso      1.000     O          -0.578611           
         O5        1.0000    0.84840   0.61840   0.34350   Biso      1.000     O          -0.51681  
         O6        1.0000    0.88720   0.01200   0.69050   Biso      1.000     O          -0.573001           
         O7        1.0000    0.38910   0.96990   0.56170   Biso      1.000     O          -0.531054           
         O8        1.0000    0.28170   0.87580   0.44810   Biso      1.000     O          -0.56713  
         O9        1.0000    0.68070   0.63730   0.71140   Biso      1.000     O          -0.5785939999999999           
         O10       1.0000    0.67980   0.79640   0.63250   Biso      1.000     O          -0.5645789999999999           
         O11       1.0000    0.11280   0.98800   0.30950   Biso      1.000     O          -0.5729989999999999           
         O12       1.0000    0.15160   0.11840   0.15650   Biso      1.000     O          -0.516796           
         O13       1.0000    0.61090   0.46990   0.93830   Biso      1.000     O          -0.531042           
         O14       1.0000    0.84840   0.88160   0.84350   Biso      1.000     O          -0.516795           
         O15       1.0000    0.71830   0.37580   0.05190   Biso      1.000     O          -0.56712  
         O16       1.0000    0.32020   0.29640   0.86750   Biso      1.000     O          -0.564595           
         O17       1.0000    0.88720   0.48800   0.19050   Biso      1.000     O          -0.573024           
         O18       1.0000    0.11280   0.51200   0.80950   Biso      1.000     O          -0.57303  
         O19       1.0000    0.61090   0.03010   0.43830   Biso      1.000     O          -0.5310729999999999           
         O20       1.0000    0.71830   0.12420   0.55190   Biso      1.000     O          -0.567153           
         O21       1.0000    0.31930   0.36270   0.28860   Biso      1.000     O          -0.578605           
         O22       1.0000    0.32020   0.20360   0.36750   Biso      1.000     O          -0.564588           
         O23       1.0000    0.31930   0.13730   0.78860   Biso      1.000     O          -0.5786140000000001           
         O24       1.0000    0.15160   0.38160   0.65650   Biso      1.000     O          -0.516817 