
##########################################################################
#               Crystallographic Information Format file
#               Produced by PyCifRW module
#
#  This is a CIF file.  CIF has been adopted by the International
#  Union of Crystallography as the standard for data archiving and
#  transmission.
#
#  For information on this file format, follow the CIF links at
#  http://www.iucr.org
##########################################################################

data_image0

_cell_length_a                          15.8734
_cell_length_b                          13.4525
_cell_length_c                          6.6309
_cell_angle_alpha                       90
_cell_angle_beta                        97.862
_cell_angle_gamma                       90
_symmetry_space_group_name_H-M          'P 1'
_symmetry_int_tables_number             1
loop_
  _symmetry_equiv_pos_as_xyz
         'x, y, z' 
loop_
  _atom_site_label
  _atom_site_occupancy
  _atom_site_fract_x
  _atom_site_fract_y
  _atom_site_fract_z
  _atom_site_thermal_displace_type
  _atom_site_B_iso_or_equiv
  _atom_site_type_symbol
  _atom_site_charge
         C1        1.0000    0.64380   0.28300   0.66240   Biso      1.000     C          0.7109800000000001  
         C2        1.0000    0.45210   0.78360   0.87620   Biso      1.000     C          -0.09688300000000001          
         C3        1.0000    0.35620   0.78300   0.83760   Biso      1.000     C          0.7109810000000001  
         C4        1.0000    0.54790   0.28360   0.62380   Biso      1.000     C          -0.09688300000000001          
         C5        1.0000    0.35760   0.38800   0.01760   Biso      1.000     C          0.585388  
         C6        1.0000    0.97810   0.04810   0.98940   Biso      1.000     C          -0.29578000000000004          
         C7        1.0000    0.89930   0.05140   0.83280   Biso      1.000     C          0.6745939999999999  
         C8        1.0000    0.02190   0.95190   0.01060   Biso      1.000     C          -0.29578000000000004          
         C9        1.0000    0.35760   0.11200   0.51760   Biso      1.000     C          0.585388  
         C10       1.0000    0.41290   0.20340   0.55400   Biso      1.000     C          -0.044816           
         C11       1.0000    0.64380   0.21700   0.16240   Biso      1.000     C          0.7109800000000001  
         C12       1.0000    0.54790   0.21640   0.12380   Biso      1.000     C          -0.09688300000000001          
         C13       1.0000    0.50460   0.12590   0.12050   Biso      1.000     C          0.083509  
         C14       1.0000    0.50100   0.30310   0.09180   Biso      1.000     C          -0.075794           
         C15       1.0000    0.37610   0.20320   0.04900   Biso      1.000     C          0.061461  
         C16       1.0000    0.50100   0.19690   0.59180   Biso      1.000     C          -0.075794           
         C17       1.0000    0.37610   0.29680   0.54900   Biso      1.000     C          0.061461  
         C18       1.0000    0.10070   0.94860   0.16720   Biso      1.000     C          0.6745939999999999  
         C19       1.0000    0.49540   0.87410   0.87950   Biso      1.000     C          0.083509  
         C20       1.0000    0.02190   0.54810   0.51060   Biso      1.000     C          -0.29578000000000004          
         C21       1.0000    0.10070   0.55140   0.66720   Biso      1.000     C          0.6745939999999999  
         C22       1.0000    0.64240   0.61200   0.98240   Biso      1.000     C          0.585388  
         C23       1.0000    0.50460   0.37410   0.62050   Biso      1.000     C          0.083509  
         C24       1.0000    0.49900   0.69690   0.90820   Biso      1.000     C          -0.075794           
         C25       1.0000    0.58710   0.70340   0.94600   Biso      1.000     C          -0.044816           
         C26       1.0000    0.97810   0.45190   0.48940   Biso      1.000     C          -0.29578000000000004          
         C27       1.0000    0.64240   0.88800   0.48240   Biso      1.000     C          0.585388  
         C28       1.0000    0.41290   0.29660   0.05400   Biso      1.000     C          -0.044816           
         C29       1.0000    0.45210   0.71640   0.37620   Biso      1.000     C          -0.09688300000000001          
         C30       1.0000    0.49540   0.62590   0.37950   Biso      1.000     C          0.083509  
         C31       1.0000    0.62390   0.79680   0.95100   Biso      1.000     C          0.061461  
         C32       1.0000    0.62390   0.70320   0.45100   Biso      1.000     C          0.061461  
         C33       1.0000    0.89930   0.44860   0.33280   Biso      1.000     C          0.6745939999999999  
         C34       1.0000    0.58710   0.79660   0.44600   Biso      1.000     C          -0.044816           
         C35       1.0000    0.49900   0.80310   0.40820   Biso      1.000     C          -0.075794           
         C36       1.0000    0.35620   0.71700   0.33760   Biso      1.000     C          0.7109800000000001  
         H1        1.0000    0.53610   0.43210   0.64520   Biso      1.000     H          0.105218  
         H2        1.0000    0.01770   0.40210   0.45390   Biso      1.000     H          0.149662  
         H3        1.0000    0.52800   0.13540   0.59570   Biso      1.000     H          0.12981199999999998           
         H4        1.0000    0.96210   0.06640   0.12060   Biso      1.000     H          0.137785  
         H5        1.0000    0.46390   0.93210   0.85480   Biso      1.000     H          0.105218  
         H6        1.0000    0.68270   0.80120   0.98020   Biso      1.000     H          0.10386   
         H7        1.0000    0.47200   0.63540   0.90430   Biso      1.000     H          0.12981199999999998           
         H8        1.0000    0.31730   0.30120   0.51980   Biso      1.000     H          0.10386   
         H9        1.0000    0.01770   0.09790   0.95390   Biso      1.000     H          0.149662  
         H10       1.0000    0.98230   0.59790   0.54610   Biso      1.000     H          0.149662  
         H11       1.0000    0.31730   0.19880   0.01980   Biso      1.000     H          0.10386   
         H12       1.0000    0.03790   0.93360   0.87940   Biso      1.000     H          0.137784  
         H13       1.0000    0.47200   0.86460   0.40430   Biso      1.000     H          0.12981199999999998           
         H14       1.0000    0.53610   0.06790   0.14520   Biso      1.000     H          0.105218  
         H15       1.0000    0.52800   0.36460   0.09570   Biso      1.000     H          0.12981199999999998           
         H16       1.0000    0.98230   0.90210   0.04610   Biso      1.000     H          0.149662  
         H17       1.0000    0.03790   0.56640   0.37940   Biso      1.000     H          0.137784  
         H18       1.0000    0.96210   0.43360   0.62060   Biso      1.000     H          0.137784  
         H19       1.0000    0.46390   0.56790   0.35480   Biso      1.000     H          0.105218  
         H20       1.0000    0.68270   0.69880   0.48020   Biso      1.000     H          0.10386   
         N1        1.0000    0.42020   0.38100   0.58370   Biso      1.000     N          -0.2743   
         N2        1.0000    0.57980   0.61900   0.41630   Biso      1.000     N          -0.2743   
         N3        1.0000    0.42020   0.11900   0.08370   Biso      1.000     N          -0.2743   
         N4        1.0000    0.57980   0.88100   0.91630   Biso      1.000     N          -0.2743   
         O1        1.0000    0.11453   0.48860   0.80730   Biso      1.000     O          -0.6752279999999999           
         O2        1.0000    0.15270   0.62070   0.65370   Biso      1.000     O          -0.692228           
         O3        1.0000    0.61040   0.52830   0.94150   Biso      1.000     O          -0.623974           
         O4        1.0000    0.68113   0.36270   0.71600   Biso      1.000     O          -0.702608           
         O5        1.0000    0.11453   0.01140   0.30730   Biso      1.000     O          -0.6752279999999999           
         O6        1.0000    0.15270   0.87930   0.15370   Biso      1.000     O          -0.692228           
         O7        1.0000    0.71921   0.62350   0.05530   Biso      1.000     O          -0.652122           
         O8        1.0000    0.31887   0.86270   0.78400   Biso      1.000     O          -0.702608           
         O9        1.0000    0.68035   0.29670   0.13450   Biso      1.000     O          -0.694539           
         O10       1.0000    0.68035   0.20330   0.63450   Biso      1.000     O          -0.694539           
         O11       1.0000    0.31887   0.63730   0.28400   Biso      1.000     O          -0.702608           
         O12       1.0000    0.61040   0.97170   0.44150   Biso      1.000     O          -0.623974           
         O13       1.0000    0.68113   0.13730   0.21600   Biso      1.000     O          -0.702608           
         O14       1.0000    0.28079   0.37650   0.94470   Biso      1.000     O          -0.652122           
         O15       1.0000    0.38960   0.47170   0.05850   Biso      1.000     O          -0.623974           
         O16       1.0000    0.84730   0.37930   0.34630   Biso      1.000     O          -0.692228           
         O17       1.0000    0.88547   0.51140   0.19270   Biso      1.000     O          -0.6752279999999999           
         O18       1.0000    0.31965   0.79670   0.36550   Biso      1.000     O          -0.694539           
         O19       1.0000    0.88547   0.98860   0.69270   Biso      1.000     O          -0.6752279999999999           
         O20       1.0000    0.84730   0.12070   0.84630   Biso      1.000     O          -0.692228           
         O21       1.0000    0.38960   0.02830   0.55850   Biso      1.000     O          -0.623974           
         O22       1.0000    0.28079   0.12350   0.44470   Biso      1.000     O          -0.652122           
         O23       1.0000    0.31965   0.70330   0.86550   Biso      1.000     O          -0.694539           
         O24       1.0000    0.71921   0.87650   0.55530   Biso      1.000     O          -0.652122           
         Tb1       1.0000    0.25118   0.56080   0.96505   Biso      1.000     Tb          2.086003  
         Tb2       1.0000    0.74882   0.06080   0.53495   Biso      1.000     Tb          2.086003  
         Tb3       1.0000    0.74882   0.43920   0.03495   Biso      1.000     Tb          2.086003  
         Tb4       1.0000    0.25118   0.93920   0.46505   Biso      1.000     Tb          2.086003 