
##########################################################################
#               Crystallographic Information Format file
#               Produced by PyCifRW module
#
#  This is a CIF file.  CIF has been adopted by the International
#  Union of Crystallography as the standard for data archiving and
#  transmission.
#
#  For information on this file format, follow the CIF links at
#  http://www.iucr.org
##########################################################################

data_image0

_cell_length_a                          8.4321
_cell_length_b                          13.1871
_cell_length_c                          9.5505
_cell_angle_alpha                       90
_cell_angle_beta                        94.385
_cell_angle_gamma                       90
_symmetry_space_group_name_H-M          'P 1'
_symmetry_int_tables_number             1
loop_
  _symmetry_equiv_pos_as_xyz
         'x, y, z' 
loop_
  _atom_site_label
  _atom_site_occupancy
  _atom_site_fract_x
  _atom_site_fract_y
  _atom_site_fract_z
  _atom_site_thermal_displace_type
  _atom_site_B_iso_or_equiv
  _atom_site_type_symbol
  _atom_site_charge
         C1        1.0000    0.88190   0.92470   0.50560   Biso      1.000     C          -0.050324           
         C2        1.0000    0.03520   0.11130   0.24230   Biso      1.000     C          0.604037  
         C3        1.0000    0.02080   0.04920   0.37270   Biso      1.000     C          -0.051137           
         C4        1.0000    0.11810   0.07530   0.49440   Biso      1.000     C          -0.050324           
         C5        1.0000    0.20430   0.05220   0.75460   Biso      1.000     C          0.664669  
         C6        1.0000    0.74740   0.85140   0.51520   Biso      1.000     C          0.610234  
         C7        1.0000    0.09530   0.02680   0.62310   Biso      1.000     C          -0.073393           
         C8        1.0000    0.70430   0.44780   0.25460   Biso      1.000     C          0.664669  
         C9        1.0000    0.97920   0.95080   0.62730   Biso      1.000     C          -0.051137           
         C10       1.0000    0.96480   0.88870   0.75770   Biso      1.000     C          0.604037  
         C11       1.0000    0.90470   0.97320   0.37690   Biso      1.000     C          -0.073393           
         C12       1.0000    0.46480   0.61130   0.25770   Biso      1.000     C          0.604037  
         C13       1.0000    0.25260   0.14860   0.48480   Biso      1.000     C          0.610234  
         C14       1.0000    0.47920   0.54920   0.12730   Biso      1.000     C          -0.051137           
         C15       1.0000    0.38190   0.57530   0.00560   Biso      1.000     C          -0.050324           
         C16       1.0000    0.59530   0.47320   0.12310   Biso      1.000     C          -0.073392           
         C17       1.0000    0.24740   0.64860   0.01520   Biso      1.000     C          0.610234  
         C18       1.0000    0.29570   0.55220   0.74540   Biso      1.000     C          0.664669  
         C19       1.0000    0.75260   0.35140   0.98480   Biso      1.000     C          0.610234  
         C20       1.0000    0.40470   0.52680   0.87690   Biso      1.000     C          -0.073392           
         C21       1.0000    0.61810   0.42470   0.99440   Biso      1.000     C          -0.050324           
         C22       1.0000    0.52080   0.45080   0.87270   Biso      1.000     C          -0.051137           
         C23       1.0000    0.53520   0.38870   0.74230   Biso      1.000     C          0.604037  
         C24       1.0000    0.79570   0.94780   0.24540   Biso      1.000     C          0.664669  
         O1        1.0000    0.21680   0.71430   0.91860   Biso      1.000     O          -0.62483  
         O2        1.0000    0.34130   0.01300   0.76150   Biso      1.000     O          -0.538849           
         O3        1.0000    0.65560   0.38660   0.34290   Biso      1.000     O          -0.757104           
         O4        1.0000    0.84130   0.48700   0.26150   Biso      1.000     O          -0.538849           
         O5        1.0000    0.04350   0.06780   0.12290   Biso      1.000     O          -0.6095   
         O6        1.0000    0.03390   0.20730   0.25040   Biso      1.000     O          -0.63272  
         O7        1.0000    0.28320   0.21430   0.58140   Biso      1.000     O          -0.62483  
         O8        1.0000    0.33860   0.14250   0.38270   Biso      1.000     O          -0.673209           
         O9        1.0000    0.16140   0.64250   0.11730   Biso      1.000     O          -0.673209           
         O10       1.0000    0.46610   0.70730   0.24960   Biso      1.000     O          -0.63272  
         O11       1.0000    0.65870   0.98700   0.23850   Biso      1.000     O          -0.538849           
         O12       1.0000    0.84440   0.88660   0.15710   Biso      1.000     O          -0.757104           
         O13       1.0000    0.15560   0.11340   0.84290   Biso      1.000     O          -0.757104           
         O14       1.0000    0.66140   0.85750   0.61730   Biso      1.000     O          -0.673209           
         O15       1.0000    0.54350   0.43220   0.62290   Biso      1.000     O          -0.6095   
         O16       1.0000    0.71680   0.78570   0.41860   Biso      1.000     O          -0.62483  
         O17       1.0000    0.96610   0.79270   0.74960   Biso      1.000     O          -0.63272  
         O18       1.0000    0.95650   0.93220   0.87710   Biso      1.000     O          -0.6095   
         O19       1.0000    0.45650   0.56780   0.37710   Biso      1.000     O          -0.6095   
         O20       1.0000    0.15870   0.51300   0.73850   Biso      1.000     O          -0.538849           
         O21       1.0000    0.34440   0.61340   0.65710   Biso      1.000     O          -0.757104           
         O22       1.0000    0.83860   0.35750   0.88270   Biso      1.000     O          -0.673209           
         O23       1.0000    0.78320   0.28570   0.08140   Biso      1.000     O          -0.62483  
         O24       1.0000    0.53390   0.29270   0.75040   Biso      1.000     O          -0.63272  
         Tb1       1.0000    0.46147   0.72989   0.51058   Biso      1.000     Tb          2.132126  
         Tb2       1.0000    0.96147   0.77011   0.01058   Biso      1.000     Tb          2.132126  
         Tb3       1.0000    0.03853   0.22989   0.98942   Biso      1.000     Tb          2.132126  
         Tb4       1.0000    0.53853   0.27011   0.48942   Biso      1.000     Tb          2.132126 