
##########################################################################
#               Crystallographic Information Format file
#               Produced by PyCifRW module
#
#  This is a CIF file.  CIF has been adopted by the International
#  Union of Crystallography as the standard for data archiving and
#  transmission.
#
#  For information on this file format, follow the CIF links at
#  http://www.iucr.org
##########################################################################

data_image0

_cell_length_a                          8.4548
_cell_length_b                          13.1047
_cell_length_c                          9.4885
_cell_angle_alpha                       90
_cell_angle_beta                        94.439
_cell_angle_gamma                       90
_symmetry_space_group_name_H-M          'P 1'
_symmetry_int_tables_number             1
loop_
  _symmetry_equiv_pos_as_xyz
         'x, y, z' 
loop_
  _atom_site_label
  _atom_site_occupancy
  _atom_site_fract_x
  _atom_site_fract_y
  _atom_site_fract_z
  _atom_site_thermal_displace_type
  _atom_site_B_iso_or_equiv
  _atom_site_type_symbol
  _atom_site_charge
         C1        1.0000    0.96100   0.11050   0.25800   Biso      1.000     C          0.621911  
         C2        1.0000    0.88300   0.07490   0.00410   Biso      1.000     C          -0.051820000000000005         
         C3        1.0000    0.90750   0.02660   0.87560   Biso      1.000     C          -0.078984           
         C4        1.0000    0.80020   0.05270   0.74320   Biso      1.000     C          0.673694  
         C5        1.0000    0.19980   0.94730   0.25680   Biso      1.000     C          0.6737029999999999  
         C6        1.0000    0.24760   0.35170   0.51170   Biso      1.000     C          0.618548  
         C7        1.0000    0.47590   0.45080   0.62570   Biso      1.000     C          -0.052924           
         C8        1.0000    0.97590   0.04920   0.12570   Biso      1.000     C          -0.052922000000000004         
         C9        1.0000    0.38300   0.42510   0.50410   Biso      1.000     C          -0.051821000000000006         
         C10       1.0000    0.30020   0.44730   0.24320   Biso      1.000     C          0.6736949999999999  
         C11       1.0000    0.46100   0.38950   0.75800   Biso      1.000     C          0.621912  
         C12       1.0000    0.25240   0.85170   0.98830   Biso      1.000     C          0.618545  
         C13       1.0000    0.02410   0.95080   0.87430   Biso      1.000     C          -0.052924           
         C14       1.0000    0.11700   0.92510   0.99590   Biso      1.000     C          -0.051816999999999995         
         C15       1.0000    0.09250   0.97340   0.12440   Biso      1.000     C          -0.07899  
         C16       1.0000    0.40750   0.47340   0.37560   Biso      1.000     C          -0.078983           
         C17       1.0000    0.74760   0.14830   0.01170   Biso      1.000     C          0.618545  
         C18       1.0000    0.03900   0.88950   0.74200   Biso      1.000     C          0.621915  
         C19       1.0000    0.61700   0.57490   0.49590   Biso      1.000     C          -0.051815999999999994         
         C20       1.0000    0.59250   0.52660   0.62440   Biso      1.000     C          -0.078986           
         C21       1.0000    0.75240   0.64830   0.48830   Biso      1.000     C          0.618553  
         C22       1.0000    0.69980   0.55270   0.75680   Biso      1.000     C          0.6736989999999999  
         C23       1.0000    0.53900   0.61050   0.24200   Biso      1.000     C          0.621915  
         C24       1.0000    0.52410   0.54920   0.37430   Biso      1.000     C          -0.052922000000000004         
         O1        1.0000    0.83430   0.51110   0.76680   Biso      1.000     O          -0.5477310000000001           
         O2        1.0000    0.65000   0.61390   0.84220   Biso      1.000     O          -0.7569520000000001           
         O3        1.0000    0.78280   0.71280   0.58340   Biso      1.000     O          -0.613205           
         O4        1.0000    0.33430   0.98890   0.26680   Biso      1.000     O          -0.547729           
         O5        1.0000    0.15000   0.88610   0.34220   Biso      1.000     O          -0.756951           
         O6        1.0000    0.28280   0.78720   0.08340   Biso      1.000     O          -0.613168           
         O7        1.0000    0.34050   0.85960   0.88600   Biso      1.000     O          -0.692311           
         O8        1.0000    0.54920   0.56790   0.12550   Biso      1.000     O          -0.605286           
         O9        1.0000    0.53540   0.70620   0.25050   Biso      1.000     O          -0.651408           
         O10       1.0000    0.84050   0.64040   0.38600   Biso      1.000     O          -0.6923239999999999           
         O11       1.0000    0.03540   0.79380   0.75050   Biso      1.000     O          -0.651415           
         O12       1.0000    0.04920   0.93210   0.62550   Biso      1.000     O          -0.605287           
         O13       1.0000    0.95080   0.06790   0.37450   Biso      1.000     O          -0.6052960000000001           
         O14       1.0000    0.46460   0.29380   0.74950   Biso      1.000     O          -0.651409           
         O15       1.0000    0.45080   0.43210   0.87450   Biso      1.000     O          -0.6052850000000001           
         O16       1.0000    0.16570   0.48890   0.23320   Biso      1.000     O          -0.547728           
         O17       1.0000    0.35000   0.38610   0.15780   Biso      1.000     O          -0.756955           
         O18       1.0000    0.21720   0.28720   0.41660   Biso      1.000     O          -0.613176           
         O19       1.0000    0.15950   0.35960   0.61400   Biso      1.000     O          -0.6923090000000001           
         O20       1.0000    0.65950   0.14040   0.11400   Biso      1.000     O          -0.692311           
         O21       1.0000    0.71720   0.21280   0.91660   Biso      1.000     O          -0.613169           
         O22       1.0000    0.85000   0.11390   0.65780   Biso      1.000     O          -0.7569520000000001           
         O23       1.0000    0.96460   0.20620   0.24950   Biso      1.000     O          -0.651401           
         O24       1.0000    0.66570   0.01110   0.73320   Biso      1.000     O          -0.547734           
         Tb1       1.0000    0.53815   0.73098   0.99144   Biso      1.000     Tb          2.136434  
         Tb2       1.0000    0.96185   0.23098   0.50856   Biso      1.000     Tb          2.136438  
         Tb3       1.0000    0.46185   0.26902   0.00856   Biso      1.000     Tb          2.1364330000000002  
         Tb4       1.0000    0.03815   0.76903   0.49144   Biso      1.000     Tb          2.13646 