
##########################################################################
#               Crystallographic Information Format file
#               Produced by PyCifRW module
#
#  This is a CIF file.  CIF has been adopted by the International
#  Union of Crystallography as the standard for data archiving and
#  transmission.
#
#  For information on this file format, follow the CIF links at
#  http://www.iucr.org
##########################################################################

data_image0

_cell_length_a                          13.85
_cell_length_b                          12.77
_cell_length_c                          6.939
_cell_angle_alpha                       90
_cell_angle_beta                        91.45
_cell_angle_gamma                       90
_symmetry_space_group_name_H-M          'P 1'
_symmetry_int_tables_number             1
loop_
  _symmetry_equiv_pos_as_xyz
         'x, y, z' 
loop_
  _atom_site_label
  _atom_site_occupancy
  _atom_site_fract_x
  _atom_site_fract_y
  _atom_site_fract_z
  _atom_site_thermal_displace_type
  _atom_site_B_iso_or_equiv
  _atom_site_type_symbol
  _atom_site_charge
         Zn1       1.0000    0.00000   0.88280   0.50000   Biso      1.000     Zn          0.763183  
         Zn2       1.0000    0.50000   0.38280   0.50000   Biso      1.000     Zn          0.763183  
         Cr1       1.0000    0.00000   0.80957   0.00000   Biso      1.000     Cr          1.760352  
         Cr2       1.0000    0.50000   0.30957   0.00000   Biso      1.000     Cr          1.760352  
         C1        1.0000    0.94763   0.65945   0.46307   Biso      1.000     C          -0.050418           
         C2        1.0000    0.05237   0.65945   0.53693   Biso      1.000     C          -0.050418           
         C3        1.0000    0.44763   0.15945   0.46307   Biso      1.000     C          -0.050418           
         C4        1.0000    0.55237   0.15945   0.53693   Biso      1.000     C          -0.050418           
         C5        1.0000    0.80279   0.77097   0.42125   Biso      1.000     C          -0.087844           
         C6        1.0000    0.19721   0.77097   0.57875   Biso      1.000     C          -0.087844           
         C7        1.0000    0.30279   0.27097   0.42125   Biso      1.000     C          -0.087844           
         C8        1.0000    0.69721   0.27097   0.57875   Biso      1.000     C          -0.087844           
         C9        1.0000    0.73376   0.67974   0.43897   Biso      1.000     C          0.143496  
         C10       1.0000    0.26624   0.67974   0.56103   Biso      1.000     C          0.143496  
         C11       1.0000    0.23376   0.17974   0.43897   Biso      1.000     C          0.143496  
         C12       1.0000    0.76624   0.17974   0.56103   Biso      1.000     C          0.143496  
         C13       1.0000    0.69765   0.62808   0.27445   Biso      1.000     C          -0.189122           
         C14       1.0000    0.30235   0.62808   0.72555   Biso      1.000     C          -0.189122           
         C15       1.0000    0.19765   0.12808   0.27445   Biso      1.000     C          -0.189122           
         C16       1.0000    0.80235   0.12808   0.72555   Biso      1.000     C          -0.189122           
         C17       1.0000    0.63617   0.54225   0.29562   Biso      1.000     C          0.090562  
         C18       1.0000    0.36383   0.54225   0.70438   Biso      1.000     C          0.090562  
         C19       1.0000    0.13617   0.04225   0.29562   Biso      1.000     C          0.090562  
         C20       1.0000    0.86383   0.04225   0.70438   Biso      1.000     C          0.090562  
         C21       1.0000    0.64621   0.55613   0.63074   Biso      1.000     C          0.083966  
         C22       1.0000    0.35379   0.55613   0.36926   Biso      1.000     C          0.083966  
         C23       1.0000    0.14621   0.05613   0.63074   Biso      1.000     C          0.083966  
         C24       1.0000    0.85379   0.05613   0.36926   Biso      1.000     C          0.083966  
         C25       1.0000    0.70664   0.64303   0.62073   Biso      1.000     C          -0.188956           
         C26       1.0000    0.29336   0.64303   0.37927   Biso      1.000     C          -0.188956           
         C27       1.0000    0.20664   0.14303   0.62073   Biso      1.000     C          -0.188956           
         C28       1.0000    0.79336   0.14303   0.37927   Biso      1.000     C          -0.188956           
         H1        1.0000    0.94503   0.65663   0.30254   Biso      1.000     H          0.086658  
         H2        1.0000    0.05497   0.65663   0.69746   Biso      1.000     H          0.086658  
         H3        1.0000    0.44503   0.15663   0.30254   Biso      1.000     H          0.086658  
         H4        1.0000    0.55497   0.15663   0.69746   Biso      1.000     H          0.086658  
         H5        1.0000    0.91135   0.58856   0.51695   Biso      1.000     H          0.077683  
         H6        1.0000    0.08865   0.58856   0.48305   Biso      1.000     H          0.077684  
         H7        1.0000    0.41135   0.08856   0.51695   Biso      1.000     H          0.077683  
         H8        1.0000    0.58865   0.08856   0.48305   Biso      1.000     H          0.077684  
         H9        1.0000    0.81782   0.78543   0.26699   Biso      1.000     H          0.10183   
         H10       1.0000    0.18218   0.78543   0.73301   Biso      1.000     H          0.10183   
         H11       1.0000    0.31782   0.28543   0.26699   Biso      1.000     H          0.10183   
         H12       1.0000    0.68218   0.28543   0.73301   Biso      1.000     H          0.10183   
         H13       1.0000    0.76958   0.84188   0.48086   Biso      1.000     H          0.097954  
         H14       1.0000    0.23042   0.84188   0.51914   Biso      1.000     H          0.097954  
         H15       1.0000    0.26958   0.34188   0.48086   Biso      1.000     H          0.097954  
         H16       1.0000    0.73042   0.34188   0.51914   Biso      1.000     H          0.097954  
         H17       1.0000    0.71717   0.65368   0.13042   Biso      1.000     H          0.131394  
         H18       1.0000    0.28283   0.65368   0.86958   Biso      1.000     H          0.131394  
         H19       1.0000    0.21717   0.15368   0.13042   Biso      1.000     H          0.131394  
         H20       1.0000    0.78283   0.15368   0.86958   Biso      1.000     H          0.131394  
         H21       1.0000    0.60584   0.49952   0.17065   Biso      1.000     H          0.097085  
         H22       1.0000    0.39416   0.49952   0.82935   Biso      1.000     H          0.097085  
         H23       1.0000    0.10584   0.99952   0.17065   Biso      1.000     H          0.097085  
         H24       1.0000    0.89416   0.99952   0.82935   Biso      1.000     H          0.097085  
         H25       1.0000    0.62401   0.52221   0.76903   Biso      1.000     H          0.106484  
         H26       1.0000    0.37599   0.52221   0.23097   Biso      1.000     H          0.106484  
         H27       1.0000    0.12401   0.02221   0.76903   Biso      1.000     H          0.106484  
         H28       1.0000    0.87599   0.02221   0.23097   Biso      1.000     H          0.106484  
         H29       1.0000    0.73286   0.68036   0.75411   Biso      1.000     H          0.132302  
         H30       1.0000    0.26714   0.68036   0.24589   Biso      1.000     H          0.132302  
         H31       1.0000    0.23286   0.18036   0.75411   Biso      1.000     H          0.132302  
         H32       1.0000    0.76714   0.18036   0.24589   Biso      1.000     H          0.132302  
         H33       1.0000    0.88732   0.74969   0.67407   Biso      1.000     H          0.244358  
         H34       1.0000    0.11268   0.74969   0.32593   Biso      1.000     H          0.244358  
         H35       1.0000    0.38732   0.24969   0.67407   Biso      1.000     H          0.244358  
         H36       1.0000    0.61268   0.24969   0.32593   Biso      1.000     H          0.244358  
         N1        1.0000    0.89672   0.75525   0.52481   Biso      1.000     N          -0.310638           
         N2        1.0000    0.10328   0.75525   0.47519   Biso      1.000     N          -0.310638           
         N3        1.0000    0.39672   0.25525   0.52481   Biso      1.000     N          -0.310638           
         N4        1.0000    0.60328   0.25525   0.47519   Biso      1.000     N          -0.310638           
         N5        1.0000    0.61060   0.50635   0.47135   Biso      1.000     N          -0.229268           
         N6        1.0000    0.38940   0.50635   0.52865   Biso      1.000     N          -0.229268           
         N7        1.0000    0.11060   0.00635   0.47135   Biso      1.000     N          -0.229268           
         N8        1.0000    0.88940   0.00635   0.52865   Biso      1.000     N          -0.229268           
         O1        1.0000    0.97838   0.88703   0.18954   Biso      1.000     O          -0.814677           
         O2        1.0000    0.02162   0.88703   0.81046   Biso      1.000     O          -0.814677           
         O3        1.0000    0.47838   0.38703   0.18954   Biso      1.000     O          -0.814677           
         O4        1.0000    0.52162   0.38703   0.81046   Biso      1.000     O          -0.814677           
         O5        1.0000    0.90364   0.73679   0.95052   Biso      1.000     O          -0.784616           
         O6        1.0000    0.09636   0.73679   0.04948   Biso      1.000     O          -0.784616           
         O7        1.0000    0.40364   0.23679   0.95052   Biso      1.000     O          -0.784616           
         O8        1.0000    0.59636   0.23679   0.04948   Biso      1.000     O          -0.784616 