
##########################################################################
#               Crystallographic Information Format file
#               Produced by PyCifRW module
#
#  This is a CIF file.  CIF has been adopted by the International
#  Union of Crystallography as the standard for data archiving and
#  transmission.
#
#  For information on this file format, follow the CIF links at
#  http://www.iucr.org
##########################################################################

data_image0

_cell_length_a                          8.5028
_cell_length_b                          13.1108
_cell_length_c                          9.5831
_cell_angle_alpha                       90
_cell_angle_beta                        96.038
_cell_angle_gamma                       90
_symmetry_space_group_name_H-M          'P 1'
_symmetry_int_tables_number             1
loop_
  _symmetry_equiv_pos_as_xyz
         'x, y, z' 
loop_
  _atom_site_label
  _atom_site_occupancy
  _atom_site_fract_x
  _atom_site_fract_y
  _atom_site_fract_z
  _atom_site_thermal_displace_type
  _atom_site_B_iso_or_equiv
  _atom_site_type_symbol
  _atom_site_charge
         C1        1.0000    0.09400   0.02690   0.62700   Biso      1.000     C          -0.043621           
         C2        1.0000    0.02560   0.04820   0.37620   Biso      1.000     C          -0.026583           
         C3        1.0000    0.12120   0.07350   0.49930   Biso      1.000     C          -0.020202           
         C4        1.0000    0.90600   0.97310   0.37300   Biso      1.000     C          -0.043608999999999995         
         C5        1.0000    0.19980   0.05140   0.76000   Biso      1.000     C          0.601015  
         C6        1.0000    0.73890   0.85630   0.50640   Biso      1.000     C          0.5602779999999999  
         C7        1.0000    0.45720   0.61020   0.25530   Biso      1.000     C          0.557937  
         C8        1.0000    0.87880   0.92650   0.50070   Biso      1.000     C          -0.020327           
         C9        1.0000    0.97440   0.95180   0.62380   Biso      1.000     C          -0.026542000000000003         
         C10       1.0000    0.95720   0.88980   0.75530   Biso      1.000     C          0.5573670000000001  
         C11       1.0000    0.47440   0.54820   0.12380   Biso      1.000     C          -0.031602           
         C12       1.0000    0.04280   0.11020   0.24470   Biso      1.000     C          0.557417  
         C13       1.0000    0.26110   0.14370   0.49360   Biso      1.000     C          0.560248  
         C14       1.0000    0.37880   0.57350   0.00070   Biso      1.000     C          -0.016805           
         C15       1.0000    0.59400   0.47310   0.12700   Biso      1.000     C          -0.041729           
         C16       1.0000    0.23890   0.64370   0.00640   Biso      1.000     C          0.559104  
         C17       1.0000    0.69980   0.44860   0.26000   Biso      1.000     C          0.599988  
         C18       1.0000    0.30020   0.55140   0.74000   Biso      1.000     C          0.600286  
         C19       1.0000    0.76110   0.35630   0.99360   Biso      1.000     C          0.5590689999999999  
         C20       1.0000    0.40600   0.52690   0.87300   Biso      1.000     C          -0.041964           
         C21       1.0000    0.62120   0.42650   0.99930   Biso      1.000     C          -0.016575           
         C22       1.0000    0.52560   0.45180   0.87620   Biso      1.000     C          -0.031192           
         C23       1.0000    0.54280   0.38980   0.74470   Biso      1.000     C          0.558292  
         C24       1.0000    0.80020   0.94860   0.24000   Biso      1.000     C          0.601017  
         Eu1       1.0000    0.45074   0.73308   0.50429   Biso      1.000     Eu          1.4879879999999999  
         Eu2       1.0000    0.54926   0.26692   0.49571   Biso      1.000     Eu          1.487948  
         Eu3       1.0000    0.04926   0.23308   0.99571   Biso      1.000     Eu          1.488321  
         Eu4       1.0000    0.95074   0.76692   0.00429   Biso      1.000     Eu          1.488289  
         O1        1.0000    0.65190   0.38500   0.34390   Biso      1.000     O          -0.603396           
         O2        1.0000    0.04640   0.06690   0.12720   Biso      1.000     O          -0.502788           
         O3        1.0000    0.05230   0.20700   0.25650   Biso      1.000     O          -0.558742           
         O4        1.0000    0.28900   0.21330   0.58550   Biso      1.000     O          -0.5248430000000001           
         O5        1.0000    0.35400   0.12790   0.40030   Biso      1.000     O          -0.566887           
         O6        1.0000    0.83330   0.49230   0.27690   Biso      1.000     O          -0.35846  
         O7        1.0000    0.14600   0.62790   0.09970   Biso      1.000     O          -0.564783           
         O8        1.0000    0.33330   0.00770   0.77690   Biso      1.000     O          -0.360133           
         O9        1.0000    0.44770   0.70700   0.24350   Biso      1.000     O          -0.557982           
         O10       1.0000    0.45360   0.56690   0.37280   Biso      1.000     O          -0.502142           
         O11       1.0000    0.84810   0.88500   0.15610   Biso      1.000     O          -0.607538           
         O12       1.0000    0.15190   0.11500   0.84390   Biso      1.000     O          -0.6073390000000001           
         O13       1.0000    0.64600   0.87210   0.59970   Biso      1.000     O          -0.566075           
         O14       1.0000    0.71100   0.78670   0.41450   Biso      1.000     O          -0.524554           
         O15       1.0000    0.94770   0.79300   0.74350   Biso      1.000     O          -0.5587770000000001           
         O16       1.0000    0.95360   0.93310   0.87280   Biso      1.000     O          -0.502605           
         O17       1.0000    0.16670   0.50770   0.72310   Biso      1.000     O          -0.358259           
         O18       1.0000    0.34810   0.61500   0.65610   Biso      1.000     O          -0.60354  
         O19       1.0000    0.85400   0.37210   0.90030   Biso      1.000     O          -0.565025           
         O20       1.0000    0.78900   0.28670   0.08550   Biso      1.000     O          -0.522489           
         O21       1.0000    0.55230   0.29300   0.75650   Biso      1.000     O          -0.558974           
         O22       1.0000    0.54640   0.43310   0.62720   Biso      1.000     O          -0.505566           
         O23       1.0000    0.21100   0.71330   0.91450   Biso      1.000     O          -0.522623           
         O24       1.0000    0.66670   0.99230   0.22310   Biso      1.000     O          -0.360291 