
##########################################################################
#               Crystallographic Information Format file
#               Produced by PyCifRW module
#
#  This is a CIF file.  CIF has been adopted by the International
#  Union of Crystallography as the standard for data archiving and
#  transmission.
#
#  For information on this file format, follow the CIF links at
#  http://www.iucr.org
##########################################################################

data_image0

_cell_length_a                          7.8022
_cell_length_b                          11.1795
_cell_length_c                          13.4306
_cell_angle_alpha                       114.595
_cell_angle_beta                        102.582
_cell_angle_gamma                       90
_symmetry_space_group_name_H-M          'P 1'
_symmetry_int_tables_number             1
loop_
  _symmetry_equiv_pos_as_xyz
         'x, y, z' 
loop_
  _atom_site_label
  _atom_site_occupancy
  _atom_site_fract_x
  _atom_site_fract_y
  _atom_site_fract_z
  _atom_site_thermal_displace_type
  _atom_site_B_iso_or_equiv
  _atom_site_type_symbol
  _atom_site_charge
         C1        1.0000    0.24997   0.65431   0.00007   Biso      1.000     C          -0.018187000000000002         
         C2        1.0000    0.21525   0.50955   0.09124   Biso      1.000     C          -0.096174           
         C3        1.0000    0.21561   0.63516   0.09140   Biso      1.000     C          -0.08712400000000001          
         C4        1.0000    0.98583   0.37810   0.40130   Biso      1.000     C          -0.028744           
         C5        1.0000    0.12024   0.48028   0.43265   Biso      1.000     C          -0.087699           
         C6        1.0000    0.86562   0.39986   0.47032   Biso      1.000     C          -0.091973           
         C7        1.0000    0.28510   0.41843   0.90887   Biso      1.000     C          -0.095997           
         C8        1.0000    0.63325   0.92926   0.52919   Biso      1.000     C          -0.092556           
         C9        1.0000    0.28450   0.54390   0.90874   Biso      1.000     C          -0.087473           
         C10       1.0000    0.75058   0.73474   0.99935   Biso      1.000     C          0.644478  
         C11       1.0000    0.75051   0.60146   0.99929   Biso      1.000     C          -0.040863           
         C12       1.0000    0.74955   0.34626   0.00145   Biso      1.000     C          -0.018805000000000002         
         C13       1.0000    0.24989   0.78819   0.00008   Biso      1.000     C          0.609563  
         C14       1.0000    0.25029   0.26549   0.00003   Biso      1.000     C          0.6418159999999999  
         C15       1.0000    0.25022   0.39928   0.00005   Biso      1.000     C          -0.035055           
         C16       1.0000    0.74975   0.21215   0.00073   Biso      1.000     C          0.610596  
         C17       1.0000    0.38018   0.04910   0.56756   Biso      1.000     C          -0.086607           
         C18       1.0000    0.96812   0.25188   0.29590   Biso      1.000     C          0.627594  
         C19       1.0000    0.53172   0.95697   0.70414   Biso      1.000     C          0.629631  
         C20       1.0000    0.51382   0.97757   0.59864   Biso      1.000     C          -0.028154000000000002         
         C21       1.0000    0.48581   0.02304   0.40111   Biso      1.000     C          -0.02815  
         C22       1.0000    0.61940   0.95149   0.43218   Biso      1.000     C          -0.087187           
         C23       1.0000    0.36637   0.07137   0.47055   Biso      1.000     C          -0.092541           
         C24       1.0000    0.78517   0.49062   0.90907   Biso      1.000     C          -0.092987           
         C25       1.0000    0.78415   0.36565   0.91010   Biso      1.000     C          -0.083702           
         C26       1.0000    0.46817   0.04361   0.29562   Biso      1.000     C          0.627567  
         C27       1.0000    0.01393   0.62149   0.59854   Biso      1.000     C          -0.027483999999999998         
         C28       1.0000    0.87948   0.51932   0.56719   Biso      1.000     C          -0.087602           
         C29       1.0000    0.13414   0.59970   0.52952   Biso      1.000     C          -0.091837           
         C30       1.0000    0.71351   0.58131   0.09513   Biso      1.000     C          -0.10268499999999998          
         C31       1.0000    0.71471   0.45551   0.09359   Biso      1.000     C          -0.083745           
         C32       1.0000    0.03185   0.74775   0.70395   Biso      1.000     C          0.628336  
         H1        1.0000    0.81320   0.50009   0.83702   Biso      1.000     H          0.11371400000000001           
         H2        1.0000    0.81154   0.28324   0.83842   Biso      1.000     H          0.11468699999999998           
         H3        1.0000    0.78461   0.53120   0.61785   Biso      1.000     H          0.119181  
         H4        1.0000    0.23993   0.67507   0.55032   Biso      1.000     H          0.116373  
         H5        1.0000    0.68540   0.66327   0.16681   Biso      1.000     H          0.11600899999999999           
         H6        1.0000    0.68739   0.44375   0.16485   Biso      1.000     H          0.115995  
         H7        1.0000    0.18759   0.49903   0.16295   Biso      1.000     H          0.111633  
         H8        1.0000    0.73840   0.87409   0.54976   Biso      1.000     H          0.11665299999999999           
         H9        1.0000    0.75984   0.32447   0.44950   Biso      1.000     H          0.11611700000000001           
         H10       1.0000    0.21515   0.46842   0.38202   Biso      1.000     H          0.119648  
         H11       1.0000    0.18822   0.71732   0.16324   Biso      1.000     H          0.11550899999999999           
         H12       1.0000    0.26124   0.12654   0.44994   Biso      1.000     H          0.116177  
         H13       1.0000    0.28594   0.08870   0.61855   Biso      1.000     H          0.119064  
         H14       1.0000    0.71369   0.91190   0.38122   Biso      1.000     H          0.11893599999999999           
         H15       1.0000    0.31184   0.55428   0.83690   Biso      1.000     H          0.11542000000000001           
         H16       1.0000    0.31287   0.33627   0.83717   Biso      1.000     H          0.111469  
         O1        1.0000    0.41659   0.00290   0.76290   Biso      1.000     O          -0.606498           
         O2        1.0000    0.71483   0.19991   0.08541   Biso      1.000     O          -0.6127819999999999           
         O3        1.0000    0.58161   0.99567   0.23596   Biso      1.000     O          -0.606696           
         O4        1.0000    0.41790   0.08843   0.05829   Biso      1.000     O          -1.173985           
         O5        1.0000    0.69987   0.82960   0.07972   Biso      1.000     O          -0.560616           
         O6        1.0000    0.33907   0.10568   0.27044   Biso      1.000     O          -0.6348050000000001           
         O7        1.0000    0.78475   0.11584   0.91561   Biso      1.000     O          -0.615341           
         O8        1.0000    0.28507   0.80004   0.91525   Biso      1.000     O          -0.613471           
         O9        1.0000    0.08271   0.03067   0.94185   Biso      1.000     O          -1.173938           
         O10       1.0000    0.91610   0.76092   0.76235   Biso      1.000     O          -0.606539           
         O11       1.0000    0.16290   0.83376   0.72981   Biso      1.000     O          -0.634963           
         O12       1.0000    0.83836   0.16501   0.27049   Biso      1.000     O          -0.635217           
         O13       1.0000    0.19934   0.25034   0.08012   Biso      1.000     O          -0.559825           
         O14       1.0000    0.91784   0.96975   0.05814   Biso      1.000     O          -1.173514           
         O15       1.0000    0.08240   0.23969   0.23669   Biso      1.000     O          -0.606247           
         O16       1.0000    0.21467   0.88482   0.08493   Biso      1.000     O          -0.612908           
         O17       1.0000    0.66238   0.89641   0.72982   Biso      1.000     O          -0.635373           
         O18       1.0000    0.30116   0.17025   0.91990   Biso      1.000     O          -0.558904           
         O19       1.0000    0.58265   0.91168   0.94172   Biso      1.000     O          -1.173524           
         O20       1.0000    0.80126   0.75003   0.91928   Biso      1.000     O          -0.5587979999999999           
         Zr1       1.0000    0.17806   0.08188   0.11366   Biso      1.000     Zr          2.287995  
         Zr2       1.0000    0.32232   0.96827   0.88647   Biso      1.000     Zr          2.2876830000000004  
         Zr3       1.0000    0.82232   0.91885   0.88640   Biso      1.000     Zr          2.2871799999999998  
         Zr4       1.0000    0.67802   0.03151   0.11366   Biso      1.000     Zr          2.288256 