
##########################################################################
#               Crystallographic Information Format file
#               Produced by PyCifRW module
#
#  This is a CIF file.  CIF has been adopted by the International
#  Union of Crystallography as the standard for data archiving and
#  transmission.
#
#  For information on this file format, follow the CIF links at
#  http://www.iucr.org
##########################################################################

data_image0

_cell_length_a                          6.9437
_cell_length_b                          13.3226
_cell_length_c                          16.3848
_cell_angle_alpha                       90
_cell_angle_beta                        90
_cell_angle_gamma                       90
_symmetry_space_group_name_H-M          'P 1'
_symmetry_int_tables_number             1
loop_
  _symmetry_equiv_pos_as_xyz
         'x, y, z' 
loop_
  _atom_site_label
  _atom_site_occupancy
  _atom_site_fract_x
  _atom_site_fract_y
  _atom_site_fract_z
  _atom_site_thermal_displace_type
  _atom_site_B_iso_or_equiv
  _atom_site_type_symbol
  _atom_site_charge
         C1        1.0000    0.50000   0.47040   0.96340   Biso      1.000     C          0.06421   
         C2        1.0000    0.50000   0.37660   0.11720   Biso      1.000     C          0.024699000000000002          
         C3        1.0000    0.00000   0.86400   0.53000   Biso      1.000     C          -0.16216  
         C4        1.0000    0.50000   0.32290   0.19860   Biso      1.000     C          0.572674  
         C5        1.0000    0.50000   0.36400   0.97000   Biso      1.000     C          -0.16216  
         C6        1.0000    0.50000   0.67710   0.80140   Biso      1.000     C          0.572674  
         C7        1.0000    0.50000   0.47820   0.11350   Biso      1.000     C          -0.15581  
         C8        1.0000    0.00000   0.81810   0.45550   Biso      1.000     C          -0.123597           
         C9        1.0000    0.00000   0.87660   0.38280   Biso      1.000     C          0.024699000000000002          
         C10       1.0000    0.00000   0.12340   0.61720   Biso      1.000     C          0.024699000000000002          
         C11       1.0000    0.50000   0.31810   0.04450   Biso      1.000     C          -0.123597           
         C12       1.0000    0.00000   0.82290   0.30140   Biso      1.000     C          0.572674  
         C13       1.0000    0.50000   0.63600   0.03000   Biso      1.000     C          -0.16216  
         C14       1.0000    0.00000   0.13600   0.47000   Biso      1.000     C          -0.16216  
         C15       1.0000    0.00000   0.97820   0.38650   Biso      1.000     C          -0.15581  
         C16       1.0000    0.50000   0.52960   0.03660   Biso      1.000     C          0.06421   
         C17       1.0000    0.00000   0.17710   0.69860   Biso      1.000     C          0.572674  
         C18       1.0000    0.50000   0.68190   0.95550   Biso      1.000     C          -0.123597           
         C19       1.0000    0.00000   0.97040   0.53660   Biso      1.000     C          0.06421   
         C20       1.0000    0.50000   0.52180   0.88650   Biso      1.000     C          -0.15581  
         C21       1.0000    0.00000   0.02960   0.46340   Biso      1.000     C          0.06421   
         C22       1.0000    0.50000   0.62340   0.88280   Biso      1.000     C          0.0247    
         C23       1.0000    0.00000   0.02180   0.61350   Biso      1.000     C          -0.15581  
         C24       1.0000    0.00000   0.18190   0.54450   Biso      1.000     C          -0.123597           
         Cd1       1.0000    0.50000   0.22364   0.34059   Biso      1.000     Cd          1.1729120000000002  
         Cd2       1.0000    0.00000   0.27636   0.84059   Biso      1.000     Cd          1.1729120000000002  
         Cd3       1.0000    0.00000   0.72364   0.15941   Biso      1.000     Cd          1.1729120000000002  
         Cd4       1.0000    0.50000   0.77636   0.65941   Biso      1.000     Cd          1.1729120000000002  
         H1        1.0000    0.00000   0.25160   0.54770   Biso      1.000     H          0.147504  
         H2        1.0000    0.00000   0.01520   0.33840   Biso      1.000     H          0.141022  
         H3        1.0000    0.00000   0.98480   0.66160   Biso      1.000     H          0.141022  
         H4        1.0000    0.50000   0.24840   0.04770   Biso      1.000     H          0.147504  
         H5        1.0000    0.50000   0.75160   0.95230   Biso      1.000     H          0.147504  
         H6        1.0000    0.50000   0.51520   0.16160   Biso      1.000     H          0.141022  
         H7        1.0000    0.50000   0.48480   0.83840   Biso      1.000     H          0.141022  
         H8        1.0000    0.00000   0.74840   0.45230   Biso      1.000     H          0.147504  
         O1        1.0000    0.67130   0.30950   0.83450   Biso      1.000     O          -0.634775           
         O2        1.0000    0.17130   0.80950   0.66550   Biso      1.000     O          -0.634775           
         O3        1.0000    0.17130   0.19050   0.33450   Biso      1.000     O          -0.634775           
         O4        1.0000    0.00000   0.12710   0.76330   Biso      1.000     O          -0.533745           
         O5        1.0000    0.50000   0.22900   0.19870   Biso      1.000     O          -0.51998  
         O6        1.0000    0.50000   0.62710   0.73670   Biso      1.000     O          -0.533745           
         O7        1.0000    0.00000   0.72900   0.30130   Biso      1.000     O          -0.51998  
         O8        1.0000    0.50000   0.18330   0.91270   Biso      1.000     O          -0.571435           
         O9        1.0000    0.00000   0.27100   0.69870   Biso      1.000     O          -0.51998  
         O10       1.0000    0.50000   0.81670   0.08730   Biso      1.000     O          -0.571435           
         O11       1.0000    0.50000   0.37290   0.26330   Biso      1.000     O          -0.533745           
         O12       1.0000    0.00000   0.87290   0.23670   Biso      1.000     O          -0.533745           
         O13       1.0000    0.82870   0.80950   0.66550   Biso      1.000     O          -0.634775           
         O14       1.0000    0.00000   0.31670   0.41270   Biso      1.000     O          -0.571435           
         O15       1.0000    0.00000   0.68330   0.58730   Biso      1.000     O          -0.571435           
         O16       1.0000    0.32870   0.30950   0.83450   Biso      1.000     O          -0.634775           
         O17       1.0000    0.32870   0.69050   0.16550   Biso      1.000     O          -0.634775           
         O18       1.0000    0.67130   0.69050   0.16550   Biso      1.000     O          -0.634775           
         O19       1.0000    0.82870   0.19050   0.33450   Biso      1.000     O          -0.634775           
         O20       1.0000    0.50000   0.77100   0.80130   Biso      1.000     O          -0.51998  
         S1        1.0000    0.00000   0.78427   0.61820   Biso      1.000     S          1.213254  
         S2        1.0000    0.00000   0.21573   0.38180   Biso      1.000     S          1.213254  
         S3        1.0000    0.50000   0.28427   0.88180   Biso      1.000     S          1.213254  
         S4        1.0000    0.50000   0.71573   0.11820   Biso      1.000     S          1.213254 