
##########################################################################
#               Crystallographic Information Format file
#               Produced by PyCifRW module
#
#  This is a CIF file.  CIF has been adopted by the International
#  Union of Crystallography as the standard for data archiving and
#  transmission.
#
#  For information on this file format, follow the CIF links at
#  http://www.iucr.org
##########################################################################

data_image0

_cell_length_a                          9.1774
_cell_length_b                          12.9368
_cell_length_c                          18.5023
_cell_angle_alpha                       71.95
_cell_angle_beta                        75.6403
_cell_angle_gamma                       69.2248
_symmetry_space_group_name_H-M          'P 1'
_symmetry_int_tables_number             1
loop_
  _symmetry_equiv_pos_as_xyz
         'x, y, z' 
loop_
  _atom_site_label
  _atom_site_occupancy
  _atom_site_fract_x
  _atom_site_fract_y
  _atom_site_fract_z
  _atom_site_thermal_displace_type
  _atom_site_B_iso_or_equiv
  _atom_site_type_symbol
  _atom_site_charge
         C1        1.0000    0.74990   0.15370   0.98010   Biso      1.000     C          0.634825  
         C2        1.0000    0.06150   0.64070   0.07930   Biso      1.000     C          0.650579  
         C3        1.0000    0.77240   0.36040   0.92900   Biso      1.000     C          0.002571  
         C4        1.0000    0.88370   0.34630   0.51990   Biso      1.000     C          0.6357189999999999  
         C5        1.0000    0.69630   0.27900   0.95720   Biso      1.000     C          0.007946  
         C6        1.0000    0.91010   0.34570   0.32690   Biso      1.000     C          -0.569724           
         C7        1.0000    0.58270   0.15430   0.17310   Biso      1.000     C          -0.569416           
         C8        1.0000    0.89220   0.76790   0.83850   Biso      1.000     C          -0.035545           
         C9        1.0000    0.62640   0.46370   0.09670   Biso      1.000     C          -0.567704           
         C10       1.0000    0.00050   0.94100   0.81420   Biso      1.000     C          0.63172   
         C11       1.0000    0.62030   0.65800   0.70020   Biso      1.000     C          -0.026866           
         C12       1.0000    0.44340   0.73840   0.59200   Biso      1.000     C          0.629466  
         C13       1.0000    0.21850   0.14070   0.57930   Biso      1.000     C          0.647898  
         C14       1.0000    0.47430   0.55140   0.08080   Biso      1.000     C          0.46662600000000004           
         C15       1.0000    0.24430   0.44100   0.31420   Biso      1.000     C          0.63066   
         C16       1.0000    0.78150   0.85930   0.42070   Biso      1.000     C          0.647898  
         C17       1.0000    0.89350   0.05140   0.58080   Biso      1.000     C          0.466434  
         C18       1.0000    0.02150   0.15800   0.20020   Biso      1.000     C          -0.027543           
         C19       1.0000    0.06180   0.13960   0.57100   Biso      1.000     C          0.001446  
         C20       1.0000    0.81320   0.96370   0.59670   Biso      1.000     C          -0.5683   
         C21       1.0000    0.37970   0.34200   0.29980   Biso      1.000     C          -0.026866           
         C22       1.0000    0.93250   0.22100   0.54280   Biso      1.000     C          0.009977  
         C23       1.0000    0.93820   0.86040   0.42900   Biso      1.000     C          0.001446  
         C24       1.0000    0.47800   0.78220   0.76540   Biso      1.000     C          0.43923100000000004           
         C25       1.0000    0.10780   0.23210   0.16150   Biso      1.000     C          -0.035545           
         C26       1.0000    0.50140   0.26790   0.33850   Biso      1.000     C          -0.033809           
         C27       1.0000    0.55660   0.26160   0.40800   Biso      1.000     C          0.6294649999999999  
         C28       1.0000    0.49860   0.73210   0.66150   Biso      1.000     C          -0.033809           
         C29       1.0000    0.52570   0.44860   0.91920   Biso      1.000     C          0.46662600000000004           
         C30       1.0000    0.08990   0.65430   0.67310   Biso      1.000     C          -0.569724           
         C31       1.0000    0.77380   0.76160   0.90800   Biso      1.000     C          0.634509  
         C32       1.0000    0.10650   0.94860   0.41920   Biso      1.000     C          0.466434  
         C33       1.0000    0.18680   0.03630   0.40330   Biso      1.000     C          -0.568299           
         C34       1.0000    0.37360   0.53630   0.90330   Biso      1.000     C          -0.567704           
         C35       1.0000    0.22620   0.23840   0.09200   Biso      1.000     C          0.634509  
         C36       1.0000    0.99950   0.05900   0.18580   Biso      1.000     C          0.6317189999999999  
         C37       1.0000    0.30370   0.72100   0.04280   Biso      1.000     C          0.007937999999999999          
         C38       1.0000    0.97440   0.28220   0.26540   Biso      1.000     C          0.439692  
         C39       1.0000    0.75570   0.55900   0.68580   Biso      1.000     C          0.63066   
         C40       1.0000    0.06750   0.77900   0.45720   Biso      1.000     C          0.009977  
         C41       1.0000    0.97850   0.84200   0.79980   Biso      1.000     C          -0.027543           
         C42       1.0000    0.52200   0.21780   0.23460   Biso      1.000     C          0.43923   
         C43       1.0000    0.02560   0.71780   0.73460   Biso      1.000     C          0.439692  
         C44       1.0000    0.11630   0.65370   0.48010   Biso      1.000     C          0.6357189999999999  
         C45       1.0000    0.22760   0.63960   0.07100   Biso      1.000     C          0.002578  
         C46       1.0000    0.93850   0.35930   0.92070   Biso      1.000     C          0.65058   
         C47       1.0000    0.25010   0.84630   0.01990   Biso      1.000     C          0.634826  
         C48       1.0000    0.41730   0.84570   0.82690   Biso      1.000     C          -0.569416           
         H1        1.0000    0.92890   0.41860   0.30820   Biso      1.000     H          0.181631  
         H2        1.0000    0.03870   0.69710   0.62890   Biso      1.000     H          0.168656  
         H3        1.0000    0.79870   0.35660   0.34100   Biso      1.000     H          0.179199  
         H4        1.0000    0.53800   0.69300   0.03540   Biso      1.000     H          0.325558  
         H5        1.0000    0.65570   0.08140   0.19180   Biso      1.000     H          0.18119000000000002           
         H6        1.0000    0.73980   0.98740   0.56140   Biso      1.000     H          0.19609400000000002           
         H7        1.0000    0.26020   0.01260   0.43860   Biso      1.000     H          0.19609400000000002           
         H8        1.0000    0.89010   0.89260   0.59060   Biso      1.000     H          0.182948  
         H9        1.0000    0.75750   0.95420   0.64840   Biso      1.000     H          0.200211  
         H10       1.0000    0.73360   0.19300   0.53540   Biso      1.000     H          0.32579400000000003           
         H11       1.0000    0.10990   0.10740   0.40940   Biso      1.000     H          0.182948  
         H12       1.0000    0.36470   0.80290   0.87110   Biso      1.000     H          0.16931500000000002           
         H13       1.0000    0.49630   0.14340   0.15900   Biso      1.000     H          0.17864000000000002           
         H14       1.0000    0.63990   0.45420   0.14840   Biso      1.000     H          0.199897  
         H15       1.0000    0.96130   0.30290   0.37110   Biso      1.000     H          0.168656  
         H16       1.0000    0.37330   0.60740   0.90940   Biso      1.000     H          0.183016  
         H17       1.0000    0.50370   0.85660   0.84100   Biso      1.000     H          0.17864000000000002           
         H18       1.0000    0.34430   0.91860   0.80820   Biso      1.000     H          0.18119000000000002           
         H19       1.0000    0.62670   0.39260   0.09060   Biso      1.000     H          0.183016  
         H20       1.0000    0.24250   0.04580   0.35160   Biso      1.000     H          0.200211  
         H21       1.0000    0.63530   0.19710   0.12890   Biso      1.000     H          0.16931500000000002           
         H22       1.0000    0.07110   0.58140   0.69180   Biso      1.000     H          0.181631  
         H23       1.0000    0.36010   0.54580   0.85160   Biso      1.000     H          0.199897  
         H24       1.0000    0.71140   0.48740   0.06140   Biso      1.000     H          0.196042  
         H25       1.0000    0.26640   0.80700   0.46460   Biso      1.000     H          0.32579400000000003           
         H26       1.0000    0.20130   0.64340   0.65900   Biso      1.000     H          0.179199  
         H27       1.0000    0.28860   0.51260   0.93860   Biso      1.000     H          0.196042  
         H28       1.0000    0.46200   0.30700   0.96460   Biso      1.000     H          0.325558  
         Ho1       1.0000    0.23606   0.41166   0.50514   Biso      1.000     Ho          2.126243  
         Ho2       1.0000    0.15286   0.08834   0.99486   Biso      1.000     Ho          2.1261259999999997  
         Ho3       1.0000    0.84714   0.91166   0.00514   Biso      1.000     Ho          2.126125  
         Ho4       1.0000    0.76394   0.58834   0.49486   Biso      1.000     Ho          2.126242  
         N1        1.0000    0.46030   0.66260   0.04940   Biso      1.000     N          -0.29854200000000003          
         N2        1.0000    0.92215   0.69020   0.79610   Biso      1.000     N          -0.374133           
         N3        1.0000    0.39430   0.30990   0.23330   Biso      1.000     N          -0.399832           
         N4        1.0000    0.07785   0.30980   0.20390   Biso      1.000     N          -0.374132           
         N5        1.0000    0.60570   0.69010   0.76670   Biso      1.000     N          -0.399832           
         N6        1.0000    0.96510   0.96540   0.40420   Biso      1.000     N          -0.367675           
         N7        1.0000    0.93750   0.19010   0.26670   Biso      1.000     N          -0.40016799999999997          
         N8        1.0000    0.59155   0.19020   0.29610   Biso      1.000     N          -0.374664           
         N9        1.0000    0.06250   0.80990   0.73330   Biso      1.000     N          -0.40016799999999997          
         N10       1.0000    0.40845   0.80980   0.70390   Biso      1.000     N          -0.374664           
         N11       1.0000    0.33470   0.53460   0.09580   Biso      1.000     N          -0.36699299999999996          
         N12       1.0000    0.66530   0.46540   0.90420   Biso      1.000     N          -0.36699299999999996          
         N13       1.0000    0.53970   0.33740   0.95060   Biso      1.000     N          -0.29854200000000003          
         N14       1.0000    0.17230   0.83740   0.45060   Biso      1.000     N          -0.298441           
         N15       1.0000    0.03490   0.03460   0.59580   Biso      1.000     N          -0.367675           
         N16       1.0000    0.82770   0.16260   0.54940   Biso      1.000     N          -0.298442           
         O1        1.0000    0.26036   0.60088   0.48260   Biso      1.000     O          -0.6382369999999999           
         O2        1.0000    0.05433   0.03344   0.12170   Biso      1.000     O          -0.71751  
         O3        1.0000    0.79053   0.53344   0.62170   Biso      1.000     O          -0.717246           
         O4        1.0000    0.32121   0.81758   0.57400   Biso      1.000     O          -0.532258           
         O5        1.0000    0.73650   0.77350   0.45550   Biso      1.000     O          -0.746262           
         O6        1.0000    0.73261   0.83668   0.94610   Biso      1.000     O          -0.735688           
         O7        1.0000    0.96970   0.44750   0.88110   Biso      1.000     O          -0.48473999999999995          
         O8        1.0000    0.29830   0.05250   0.61890   Biso      1.000     O          -0.483676           
         O9        1.0000    0.96550   0.72650   0.04450   Biso      1.000     O          -0.7474569999999999           
         O10       1.0000    0.20947   0.46656   0.37830   Biso      1.000     O          -0.717246           
         O11       1.0000    0.16468   0.49654   0.26150   Biso      1.000     O          -0.534489           
         O12       1.0000    0.26350   0.22650   0.54450   Biso      1.000     O          -0.746262           
         O13       1.0000    0.03450   0.27350   0.95550   Biso      1.000     O          -0.747458           
         O14       1.0000    0.70170   0.94750   0.38110   Biso      1.000     O          -0.483676           
         O15       1.0000    0.65616   0.10088   0.98260   Biso      1.000     O          -0.6376   
         O16       1.0000    0.51539   0.66332   0.55390   Biso      1.000     O          -0.7335699999999999           
         O17       1.0000    0.88627   0.09876   0.99530   Biso      1.000     O          -0.768221           
         O18       1.0000    0.67879   0.18242   0.42600   Biso      1.000     O          -0.532258           
         O19       1.0000    0.03030   0.55250   0.11890   Biso      1.000     O          -0.48473999999999995          
         O20       1.0000    0.73964   0.39912   0.51740   Biso      1.000     O          -0.6382369999999999           
         O21       1.0000    0.07728   0.99654   0.76150   Biso      1.000     O          -0.534805           
         O22       1.0000    0.92272   0.00346   0.23850   Biso      1.000     O          -0.534805           
         O23       1.0000    0.83532   0.50346   0.73850   Biso      1.000     O          -0.534489           
         O24       1.0000    0.98033   0.40124   0.50470   Biso      1.000     O          -0.768772           
         O25       1.0000    0.48461   0.33668   0.44610   Biso      1.000     O          -0.7335699999999999           
         O26       1.0000    0.34384   0.89912   0.01740   Biso      1.000     O          -0.6376   
         O27       1.0000    0.01967   0.59876   0.49530   Biso      1.000     O          -0.768772           
         O28       1.0000    0.71279   0.68242   0.92600   Biso      1.000     O          -0.5342100000000001           
         O29       1.0000    0.94567   0.96656   0.87830   Biso      1.000     O          -0.71751  
         O30       1.0000    0.26739   0.16332   0.05390   Biso      1.000     O          -0.735688           
         O31       1.0000    0.11373   0.90124   0.00470   Biso      1.000     O          -0.768221           
         O32       1.0000    0.28721   0.31758   0.07400   Biso      1.000     O          -0.5342100000000001           
         Zn1       1.0000    0.79948   0.08902   0.33532   Biso      1.000     Zn          0.772756  
         Zn2       1.0000    0.77618   0.58902   0.83532   Biso      1.000     Zn          0.771483  
         Zn3       1.0000    0.20052   0.91098   0.66468   Biso      1.000     Zn          0.772756  
         Zn4       1.0000    0.22382   0.41098   0.16468   Biso      1.000     Zn          0.771483 