
##########################################################################
#               Crystallographic Information Format file
#               Produced by PyCifRW module
#
#  This is a CIF file.  CIF has been adopted by the International
#  Union of Crystallography as the standard for data archiving and
#  transmission.
#
#  For information on this file format, follow the CIF links at
#  http://www.iucr.org
##########################################################################

data_image0

_cell_length_a                          9.1789
_cell_length_b                          12.9292
_cell_length_c                          18.4453
_cell_angle_alpha                       71.9983
_cell_angle_beta                        75.5927
_cell_angle_gamma                       69.2085
_symmetry_space_group_name_H-M          'P 1'
_symmetry_int_tables_number             1
loop_
  _symmetry_equiv_pos_as_xyz
         'x, y, z' 
loop_
  _atom_site_label
  _atom_site_occupancy
  _atom_site_fract_x
  _atom_site_fract_y
  _atom_site_fract_z
  _atom_site_thermal_displace_type
  _atom_site_B_iso_or_equiv
  _atom_site_type_symbol
  _atom_site_charge
         C1        1.0000    0.22564   0.23622   0.09130   Biso      1.000     C          0.58165   
         C2        1.0000    0.90410   0.34750   0.32650   Biso      1.000     C          -0.574263           
         C3        1.0000    0.18810   0.03680   0.40060   Biso      1.000     C          -0.569018           
         C4        1.0000    0.96843   0.28354   0.26540   Biso      1.000     C          0.45557   
         C5        1.0000    0.00344   0.94252   0.81340   Biso      1.000     C          0.56789   
         C6        1.0000    0.51737   0.21646   0.23460   Biso      1.000     C          0.45486899999999997           
         C7        1.0000    0.88142   0.34746   0.52070   Biso      1.000     C          0.571739  
         C8        1.0000    0.89190   0.05210   0.58170   Biso      1.000     C          0.454463  
         C9        1.0000    0.25042   0.84746   0.02070   Biso      1.000     C          0.573767  
         C10       1.0000    0.11858   0.65254   0.47930   Biso      1.000     C          0.571739  
         C11       1.0000    0.99656   0.05748   0.18660   Biso      1.000     C          0.56789   
         C12       1.0000    0.57810   0.15250   0.17350   Biso      1.000     C          -0.57539  
         C13       1.0000    0.37533   0.34224   0.29910   Biso      1.000     C          -0.002314           
         C14       1.0000    0.10810   0.94790   0.41830   Biso      1.000     C          0.454463  
         C15       1.0000    0.77436   0.76378   0.90870   Biso      1.000     C          0.58165   
         C16       1.0000    0.06259   0.64142   0.07600   Biso      1.000     C          0.609226  
         C17       1.0000    0.93740   0.86040   0.43040   Biso      1.000     C          -0.008601000000000001         
         C18       1.0000    0.06260   0.13960   0.56960   Biso      1.000     C          -0.008601000000000001         
         C19       1.0000    0.09590   0.65250   0.67350   Biso      1.000     C          -0.574263           
         C20       1.0000    0.62550   0.46320   0.09940   Biso      1.000     C          -0.564807           
         C21       1.0000    0.48263   0.78354   0.76540   Biso      1.000     C          0.45486800000000005           
         C22       1.0000    0.89547   0.76796   0.83870   Biso      1.000     C          -0.0053479999999999995        
         C23       1.0000    0.21999   0.14142   0.57600   Biso      1.000     C          0.609911  
         C24       1.0000    0.47430   0.55210   0.08170   Biso      1.000     C          0.45443999999999996           
         C25       1.0000    0.93103   0.22174   0.54220   Biso      1.000     C          0.024746  
         C26       1.0000    0.01667   0.15776   0.20090   Biso      1.000     C          -0.00042699999999999997       
         C27       1.0000    0.42190   0.84750   0.82650   Biso      1.000     C          -0.575389           
         C28       1.0000    0.06897   0.77826   0.45780   Biso      1.000     C          0.024746  
         C29       1.0000    0.37450   0.53680   0.90060   Biso      1.000     C          -0.564807           
         C30       1.0000    0.55316   0.26378   0.40870   Biso      1.000     C          0.5832470000000001  
         C31       1.0000    0.69497   0.27826   0.95780   Biso      1.000     C          0.025135  
         C32       1.0000    0.50213   0.73204   0.66130   Biso      1.000     C          -0.005927           
         C33       1.0000    0.10453   0.23204   0.16130   Biso      1.000     C          -0.005346           
         C34       1.0000    0.52570   0.44790   0.91830   Biso      1.000     C          0.45443999999999996           
         C35       1.0000    0.77180   0.36040   0.93040   Biso      1.000     C          -0.008589           
         C36       1.0000    0.93741   0.35858   0.92400   Biso      1.000     C          0.609225  
         C37       1.0000    0.03157   0.71646   0.73460   Biso      1.000     C          0.45556899999999995           
         C38       1.0000    0.49787   0.26796   0.33870   Biso      1.000     C          -0.005926           
         C39       1.0000    0.98333   0.84224   0.79910   Biso      1.000     C          -0.000425           
         C40       1.0000    0.75936   0.55748   0.68660   Biso      1.000     C          0.567185  
         C41       1.0000    0.74958   0.15254   0.97930   Biso      1.000     C          0.573767  
         C42       1.0000    0.24064   0.44252   0.31340   Biso      1.000     C          0.567184  
         C43       1.0000    0.44684   0.73622   0.59130   Biso      1.000     C          0.5832470000000001  
         C44       1.0000    0.22820   0.63960   0.06960   Biso      1.000     C          -0.008593           
         C45       1.0000    0.30503   0.72174   0.04220   Biso      1.000     C          0.025138  
         C46       1.0000    0.81190   0.96320   0.59940   Biso      1.000     C          -0.569018           
         C47       1.0000    0.62467   0.65776   0.70090   Biso      1.000     C          -0.002315           
         C48       1.0000    0.78001   0.85858   0.42400   Biso      1.000     C          0.609911  
         H1        1.0000    0.36370   0.54580   0.84840   Biso      1.000     H          0.19475399999999998           
         H2        1.0000    0.53720   0.69450   0.03750   Biso      1.000     H          0.326781  
         H3        1.0000    0.73720   0.98620   0.56480   Biso      1.000     H          0.19686900000000002           
         H4        1.0000    0.86590   0.42760   0.30320   Biso      1.000     H          0.195055  
         H5        1.0000    0.24210   0.04580   0.34840   Biso      1.000     H          0.195348  
         H6        1.0000    0.26920   0.80550   0.46250   Biso      1.000     H          0.32413600000000004           
         H7        1.0000    0.67500   0.16610   0.14470   Biso      1.000     H          0.183766  
         H8        1.0000    0.01420   0.66610   0.64470   Biso      1.000     H          0.183765  
         H9        1.0000    0.40330   0.92760   0.80320   Biso      1.000     H          0.19579100000000002           
         H10       1.0000    0.88900   0.89230   0.59310   Biso      1.000     H          0.184697  
         H11       1.0000    0.50180   0.17780   0.13940   Biso      1.000     H          0.180086  
         H12       1.0000    0.73080   0.19450   0.53750   Biso      1.000     H          0.32413600000000004           
         H13       1.0000    0.49820   0.82220   0.86060   Biso      1.000     H          0.180086  
         H14       1.0000    0.26280   0.01380   0.43520   Biso      1.000     H          0.19686900000000002           
         H15       1.0000    0.81900   0.32220   0.36060   Biso      1.000     H          0.180026  
         H16       1.0000    0.37440   0.60770   0.90690   Biso      1.000     H          0.182903  
         H17       1.0000    0.13410   0.57240   0.69680   Biso      1.000     H          0.195055  
         H18       1.0000    0.46280   0.30550   0.96250   Biso      1.000     H          0.326781  
         H19       1.0000    0.98580   0.33390   0.35530   Biso      1.000     H          0.183765  
         H20       1.0000    0.18100   0.67780   0.63940   Biso      1.000     H          0.180026  
         H21       1.0000    0.71180   0.48620   0.06480   Biso      1.000     H          0.195322  
         H22       1.0000    0.32500   0.83390   0.85530   Biso      1.000     H          0.183766  
         H23       1.0000    0.62560   0.39230   0.09310   Biso      1.000     H          0.182903  
         H24       1.0000    0.28820   0.51380   0.93520   Biso      1.000     H          0.195322  
         H25       1.0000    0.63630   0.45420   0.15160   Biso      1.000     H          0.19475399999999998           
         H26       1.0000    0.75790   0.95420   0.65160   Biso      1.000     H          0.195348  
         H27       1.0000    0.59670   0.07240   0.19680   Biso      1.000     H          0.19579100000000002           
         H28       1.0000    0.11100   0.10770   0.40690   Biso      1.000     H          0.184697  
         N1        1.0000    0.58716   0.18923   0.29665   Biso      1.000     N          -0.36019  
         N2        1.0000    0.66523   0.46510   0.90524   Biso      1.000     N          -0.37891199999999997          
         N3        1.0000    0.06684   0.80926   0.73346   Biso      1.000     N          -0.384701           
         N4        1.0000    0.45986   0.66378   0.05050   Biso      1.000     N          -0.297601           
         N5        1.0000    0.93316   0.19074   0.26654   Biso      1.000     N          -0.384701           
         N6        1.0000    0.54014   0.33622   0.94950   Biso      1.000     N          -0.297601           
         N7        1.0000    0.39044   0.30926   0.23346   Biso      1.000     N          -0.38363400000000003          
         N8        1.0000    0.96443   0.96510   0.40524   Biso      1.000     N          -0.379406           
         N9        1.0000    0.41284   0.81077   0.70335   Biso      1.000     N          -0.36019  
         N10       1.0000    0.03557   0.03490   0.59476   Biso      1.000     N          -0.379406           
         N11       1.0000    0.60956   0.69074   0.76654   Biso      1.000     N          -0.383633           
         N12       1.0000    0.33477   0.53490   0.09476   Biso      1.000     N          -0.378911           
         N13       1.0000    0.17414   0.83622   0.44950   Biso      1.000     N          -0.293639           
         N14       1.0000    0.07304   0.31077   0.20335   Biso      1.000     N          -0.361603           
         N15       1.0000    0.92696   0.68923   0.79665   Biso      1.000     N          -0.361603           
         N16       1.0000    0.82586   0.16378   0.55050   Biso      1.000     N          -0.293639           
         O1        1.0000    0.26539   0.22802   0.54040   Biso      1.000     O          -0.60812  
         O2        1.0000    0.96619   0.72802   0.04040   Biso      1.000     O          -0.608228           
         O3        1.0000    0.34297   0.90106   0.01940   Biso      1.000     O          -0.570442           
         O4        1.0000    0.30133   0.05360   0.61574   Biso      1.000     O          -0.477641           
         O5        1.0000    0.03381   0.27198   0.95960   Biso      1.000     O          -0.6082270000000001           
         O6        1.0000    0.48266   0.34114   0.44474   Biso      1.000     O          -0.5502239999999999           
         O7        1.0000    0.65703   0.09894   0.98060   Biso      1.000     O          -0.570441           
         O8        1.0000    0.73146   0.84114   0.94474   Biso      1.000     O          -0.550118           
         O9        1.0000    0.20600   0.46799   0.37861   Biso      1.000     O          -0.531972           
         O10       1.0000    0.32536   0.81560   0.57288   Biso      1.000     O          -0.5106850000000001           
         O11       1.0000    0.97975   0.40265   0.50385   Biso      1.000     O          -0.635857           
         O12       1.0000    0.79400   0.53201   0.62139   Biso      1.000     O          -0.531972           
         O13       1.0000    0.26343   0.59894   0.48060   Biso      1.000     O          -0.5695720000000001           
         O14       1.0000    0.92041   0.00163   0.23975   Biso      1.000     O          -0.46638199999999996          
         O15       1.0000    0.73461   0.77198   0.45960   Biso      1.000     O          -0.60812  
         O16       1.0000    0.07959   0.99837   0.76025   Biso      1.000     O          -0.466383           
         O17       1.0000    0.16179   0.49837   0.26025   Biso      1.000     O          -0.465368           
         O18       1.0000    0.28616   0.31560   0.07288   Biso      1.000     O          -0.509936           
         O19       1.0000    0.88625   0.09735   0.99615   Biso      1.000     O          -0.636648           
         O20       1.0000    0.51734   0.65886   0.55526   Biso      1.000     O          -0.5502239999999999           
         O21       1.0000    0.11375   0.90265   0.00385   Biso      1.000     O          -0.636648           
         O22       1.0000    0.67464   0.18440   0.42712   Biso      1.000     O          -0.5106850000000001           
         O23       1.0000    0.02933   0.55360   0.11574   Biso      1.000     O          -0.476153           
         O24       1.0000    0.94740   0.96799   0.87861   Biso      1.000     O          -0.5320729999999999           
         O25       1.0000    0.02025   0.59735   0.49615   Biso      1.000     O          -0.635857           
         O26       1.0000    0.73657   0.40106   0.51940   Biso      1.000     O          -0.5695720000000001           
         O27       1.0000    0.05260   0.03201   0.12139   Biso      1.000     O          -0.532072           
         O28       1.0000    0.71384   0.68440   0.92712   Biso      1.000     O          -0.509936           
         O29       1.0000    0.26854   0.15886   0.05526   Biso      1.000     O          -0.550118           
         O30       1.0000    0.69867   0.94640   0.38426   Biso      1.000     O          -0.477641           
         O31       1.0000    0.83821   0.50163   0.73975   Biso      1.000     O          -0.465369           
         O32       1.0000    0.97067   0.44640   0.88426   Biso      1.000     O          -0.476152           
         Yb1       1.0000    0.23521   0.41163   0.50413   Biso      1.000     Yb          1.404172  
         Yb2       1.0000    0.76479   0.58837   0.49587   Biso      1.000     Yb          1.4041709999999998  
         Yb3       1.0000    0.15097   0.08837   0.99587   Biso      1.000     Yb          1.403584  
         Yb4       1.0000    0.84903   0.91163   0.00413   Biso      1.000     Yb          1.403583  
         Zn1       1.0000    0.22127   0.41157   0.16325   Biso      1.000     Zn          0.796443  
         Zn2       1.0000    0.20391   0.91157   0.66325   Biso      1.000     Zn          0.796453  
         Zn3       1.0000    0.79609   0.08843   0.33675   Biso      1.000     Zn          0.796453  
         Zn4       1.0000    0.77873   0.58843   0.83675   Biso      1.000     Zn          0.7964439999999999 