
##########################################################################
#               Crystallographic Information Format file
#               Produced by PyCifRW module
#
#  This is a CIF file.  CIF has been adopted by the International
#  Union of Crystallography as the standard for data archiving and
#  transmission.
#
#  For information on this file format, follow the CIF links at
#  http://www.iucr.org
##########################################################################

data_image0

_cell_length_a                          9.1735
_cell_length_b                          12.9564
_cell_length_c                          18.5079
_cell_angle_alpha                       72.2016
_cell_angle_beta                        75.651
_cell_angle_gamma                       69.2669
_symmetry_space_group_name_H-M          'P 1'
_symmetry_int_tables_number             1
loop_
  _symmetry_equiv_pos_as_xyz
         'x, y, z' 
loop_
  _atom_site_label
  _atom_site_occupancy
  _atom_site_fract_x
  _atom_site_fract_y
  _atom_site_fract_z
  _atom_site_thermal_displace_type
  _atom_site_B_iso_or_equiv
  _atom_site_type_symbol
  _atom_site_charge
         C1        1.0000    0.47965   0.78200   0.76610   Biso      1.000     C          0.43605200000000005           
         C2        1.0000    0.99886   0.05798   0.18630   Biso      1.000     C          0.617151  
         C3        1.0000    0.77310   0.76240   0.90860   Biso      1.000     C          0.634063  
         C4        1.0000    0.88150   0.34710   0.52050   Biso      1.000     C          0.6296069999999999  
         C5        1.0000    0.24314   0.44202   0.31370   Biso      1.000     C          0.61792   
         C6        1.0000    0.55590   0.26240   0.40860   Biso      1.000     C          0.634512  
         C7        1.0000    0.77171   0.36078   0.92940   Biso      1.000     C          0.0035600000000000002         
         C8        1.0000    0.41900   0.84570   0.82730   Biso      1.000     C          -0.5723520000000001           
         C9        1.0000    0.19050   0.03550   0.40190   Biso      1.000     C          -0.566491           
         C10       1.0000    0.58100   0.15430   0.17270   Biso      1.000     C          -0.5723520000000001           
         C11       1.0000    0.06189   0.13922   0.57060   Biso      1.000     C          -2.6000000000000002e-05       
         C12       1.0000    0.49930   0.73220   0.66160   Biso      1.000     C          -0.032014999999999995         
         C13       1.0000    0.22690   0.23760   0.09140   Biso      1.000     C          0.634079  
         C14       1.0000    0.80950   0.96450   0.59810   Biso      1.000     C          -0.566491           
         C15       1.0000    0.93130   0.22120   0.54240   Biso      1.000     C          0.018583000000000002          
         C16       1.0000    0.37210   0.53550   0.90190   Biso      1.000     C          -0.5655399999999999           
         C17       1.0000    0.90800   0.34570   0.32730   Biso      1.000     C          -0.569312           
         C18       1.0000    0.50070   0.26780   0.33840   Biso      1.000     C          -0.032014           
         C19       1.0000    0.75686   0.55798   0.68630   Biso      1.000     C          0.6179180000000001  
         C20       1.0000    0.93700   0.35950   0.92170   Biso      1.000     C          0.642602  
         C21       1.0000    0.06300   0.64050   0.07830   Biso      1.000     C          0.642613  
         C22       1.0000    0.98020   0.84250   0.79930   Biso      1.000     C          -0.031043           
         C23       1.0000    0.44410   0.73760   0.59140   Biso      1.000     C          0.634512  
         C24       1.0000    0.10690   0.23220   0.16160   Biso      1.000     C          -0.030517000000000002         
         C25       1.0000    0.21820   0.14050   0.57830   Biso      1.000     C          0.641983  
         C26       1.0000    0.93811   0.86078   0.42940   Biso      1.000     C          -2.9999999999999997e-05       
         C27       1.0000    0.69490   0.27880   0.95760   Biso      1.000     C          0.015581999999999999          
         C28       1.0000    0.30510   0.72120   0.04240   Biso      1.000     C          0.015578  
         C29       1.0000    0.11850   0.65290   0.47950   Biso      1.000     C          0.6296039999999999  
         C30       1.0000    0.78180   0.85950   0.42170   Biso      1.000     C          0.642003  
         C31       1.0000    0.89310   0.76780   0.83840   Biso      1.000     C          -0.030516           
         C32       1.0000    0.01980   0.15750   0.20070   Biso      1.000     C          -0.031035000000000004         
         C33       1.0000    0.62200   0.65750   0.70070   Biso      1.000     C          -0.031205           
         C34       1.0000    0.52035   0.21800   0.23390   Biso      1.000     C          0.436055  
         C35       1.0000    0.00114   0.94202   0.81370   Biso      1.000     C          0.617173  
         C36       1.0000    0.02775   0.71800   0.73390   Biso      1.000     C          0.43643000000000004           
         C37       1.0000    0.37800   0.34250   0.29930   Biso      1.000     C          -0.031212           
         C38       1.0000    0.89040   0.05220   0.58160   Biso      1.000     C          0.46196800000000005           
         C39       1.0000    0.09200   0.65430   0.67270   Biso      1.000     C          -0.56931  
         C40       1.0000    0.52420   0.44780   0.91840   Biso      1.000     C          0.462786  
         C41       1.0000    0.74910   0.15290   0.97950   Biso      1.000     C          0.632882  
         C42       1.0000    0.06870   0.77880   0.45760   Biso      1.000     C          0.018584  
         C43       1.0000    0.25090   0.84710   0.02050   Biso      1.000     C          0.63288   
         C44       1.0000    0.22829   0.63922   0.07060   Biso      1.000     C          0.0035670000000000003         
         C45       1.0000    0.62790   0.46450   0.09810   Biso      1.000     C          -0.565541           
         C46       1.0000    0.10960   0.94780   0.41840   Biso      1.000     C          0.461974  
         C47       1.0000    0.47580   0.55220   0.08160   Biso      1.000     C          0.46278   
         C48       1.0000    0.97225   0.28200   0.26610   Biso      1.000     C          0.436428  
         Er1       1.0000    0.23609   0.41122   0.50508   Biso      1.000     Er          2.128482  
         Er2       1.0000    0.15239   0.08879   0.99491   Biso      1.000     Er          2.128765  
         Er3       1.0000    0.76391   0.58879   0.49491   Biso      1.000     Er          2.128483  
         Er4       1.0000    0.84761   0.91122   0.00508   Biso      1.000     Er          2.128768  
         H1        1.0000    0.00730   0.65890   0.64890   Biso      1.000     H          0.175217  
         H2        1.0000    0.26830   0.80550   0.46390   Biso      1.000     H          0.324761  
         H3        1.0000    0.37130   0.60650   0.90830   Biso      1.000     H          0.186978  
         H4        1.0000    0.88610   0.89350   0.59170   Biso      1.000     H          0.18801700000000002           
         H5        1.0000    0.51190   0.18700   0.13480   Biso      1.000     H          0.173243  
         H6        1.0000    0.41470   0.92370   0.80530   Biso      1.000     H          0.182362  
         H7        1.0000    0.28650   0.51200   0.93660   Biso      1.000     H          0.196863  
         H8        1.0000    0.73170   0.19450   0.53610   Biso      1.000     H          0.324762  
         H9        1.0000    0.24520   0.04460   0.35000   Biso      1.000     H          0.199729  
         H10       1.0000    0.85630   0.42370   0.30530   Biso      1.000     H          0.181535  
         H11       1.0000    0.68490   0.15890   0.14890   Biso      1.000     H          0.176261  
         H12       1.0000    0.63980   0.45540   0.15000   Biso      1.000     H          0.19964500000000002           
         H13       1.0000    0.11390   0.10650   0.40830   Biso      1.000     H          0.18802   
         H14       1.0000    0.48810   0.81300   0.86520   Biso      1.000     H          0.173244  
         H15       1.0000    0.62870   0.39350   0.09170   Biso      1.000     H          0.186975  
         H16       1.0000    0.73510   0.98800   0.56340   Biso      1.000     H          0.19651   
         H17       1.0000    0.83370   0.31300   0.36520   Biso      1.000     H          0.171955  
         H18       1.0000    0.58530   0.07630   0.19470   Biso      1.000     H          0.182366  
         H19       1.0000    0.99270   0.34110   0.35110   Biso      1.000     H          0.175215  
         H20       1.0000    0.16630   0.68700   0.63480   Biso      1.000     H          0.171955  
         H21       1.0000    0.75480   0.95540   0.65000   Biso      1.000     H          0.199727  
         H22       1.0000    0.26490   0.01200   0.43660   Biso      1.000     H          0.196511  
         H23       1.0000    0.31510   0.84110   0.85110   Biso      1.000     H          0.176259  
         H24       1.0000    0.46230   0.30550   0.96390   Biso      1.000     H          0.326047  
         H25       1.0000    0.53770   0.69450   0.03610   Biso      1.000     H          0.326049  
         H26       1.0000    0.14370   0.57630   0.69470   Biso      1.000     H          0.181538  
         H27       1.0000    0.71350   0.48800   0.06340   Biso      1.000     H          0.19686199999999998           
         H28       1.0000    0.36020   0.54460   0.85000   Biso      1.000     H          0.199646  
         N1        1.0000    0.46050   0.66380   0.04980   Biso      1.000     N          -0.297224           
         N2        1.0000    0.92412   0.69006   0.79610   Biso      1.000     N          -0.375869           
         N3        1.0000    0.07588   0.30994   0.20390   Biso      1.000     N          -0.375872           
         N4        1.0000    0.96646   0.96488   0.40460   Biso      1.000     N          -0.367083           
         N5        1.0000    0.82590   0.16380   0.54980   Biso      1.000     N          -0.296682           
         N6        1.0000    0.06346   0.81018   0.73310   Biso      1.000     N          -0.396958           
         N7        1.0000    0.41028   0.80994   0.70390   Biso      1.000     N          -0.37464400000000003          
         N8        1.0000    0.17410   0.83620   0.45020   Biso      1.000     N          -0.29668  
         N9        1.0000    0.60674   0.68982   0.76690   Biso      1.000     N          -0.39702800000000005          
         N10       1.0000    0.03354   0.03512   0.59540   Biso      1.000     N          -0.367089           
         N11       1.0000    0.39326   0.31018   0.23310   Biso      1.000     N          -0.397024           
         N12       1.0000    0.53950   0.33620   0.95020   Biso      1.000     N          -0.297223           
         N13       1.0000    0.33594   0.53512   0.09540   Biso      1.000     N          -0.369206           
         N14       1.0000    0.66406   0.46488   0.90460   Biso      1.000     N          -0.369197           
         N15       1.0000    0.58972   0.19006   0.29610   Biso      1.000     N          -0.374641           
         N16       1.0000    0.93654   0.18982   0.26690   Biso      1.000     N          -0.396961           
         O1        1.0000    0.71352   0.68270   0.92646   Biso      1.000     O          -0.53567  
         O2        1.0000    0.20894   0.46784   0.37888   Biso      1.000     O          -0.722424           
         O3        1.0000    0.73578   0.77294   0.45710   Biso      1.000     O          -0.754689           
         O4        1.0000    0.83608   0.50206   0.73918   Biso      1.000     O          -0.526501           
         O5        1.0000    0.01968   0.59843   0.49581   Biso      1.000     O          -0.770545           
         O6        1.0000    0.34465   0.90000   0.01790   Biso      1.000     O          -0.632943           
         O7        1.0000    0.98032   0.40157   0.50419   Biso      1.000     O          -0.770547           
         O8        1.0000    0.88608   0.09843   0.99581   Biso      1.000     O          -0.7721640000000001           
         O9        1.0000    0.28648   0.31730   0.07354   Biso      1.000     O          -0.5356770000000001           
         O10       1.0000    0.94434   0.96784   0.87888   Biso      1.000     O          -0.7225689999999999           
         O11       1.0000    0.26866   0.16159   0.05409   Biso      1.000     O          -0.728017           
         O12       1.0000    0.02943   0.55324   0.11810   Biso      1.000     O          -0.478336           
         O13       1.0000    0.65535   0.10000   0.98210   Biso      1.000     O          -0.632935           
         O14       1.0000    0.29923   0.05324   0.61810   Biso      1.000     O          -0.477063           
         O15       1.0000    0.26255   0.60000   0.48210   Biso      1.000     O          -0.63088  
         O16       1.0000    0.97057   0.44676   0.88190   Biso      1.000     O          -0.47831899999999994          
         O17       1.0000    0.26422   0.22706   0.54290   Biso      1.000     O          -0.754653           
         O18       1.0000    0.03418   0.27294   0.95710   Biso      1.000     O          -0.755174           
         O19       1.0000    0.51566   0.66159   0.55409   Biso      1.000     O          -0.728709           
         O20       1.0000    0.05566   0.03216   0.12112   Biso      1.000     O          -0.72253  
         O21       1.0000    0.16392   0.49794   0.26082   Biso      1.000     O          -0.526488           
         O22       1.0000    0.48434   0.33841   0.44591   Biso      1.000     O          -0.728709           
         O23       1.0000    0.79106   0.53216   0.62112   Biso      1.000     O          -0.7224119999999999           
         O24       1.0000    0.70077   0.94676   0.38190   Biso      1.000     O          -0.477046           
         O25       1.0000    0.96582   0.72706   0.04290   Biso      1.000     O          -0.755207           
         O26       1.0000    0.11392   0.90157   0.00419   Biso      1.000     O          -0.772137           
         O27       1.0000    0.67732   0.18270   0.42646   Biso      1.000     O          -0.534465           
         O28       1.0000    0.73134   0.83841   0.94591   Biso      1.000     O          -0.727986           
         O29       1.0000    0.92268   0.00206   0.23918   Biso      1.000     O          -0.525655           
         O30       1.0000    0.07732   0.99794   0.76082   Biso      1.000     O          -0.5256430000000001           
         O31       1.0000    0.32268   0.81730   0.57354   Biso      1.000     O          -0.534469           
         O32       1.0000    0.73745   0.40000   0.51790   Biso      1.000     O          -0.630868           
         Zn1       1.0000    0.22300   0.41156   0.16404   Biso      1.000     Zn          0.774302  
         Zn2       1.0000    0.77700   0.58844   0.83596   Biso      1.000     Zn          0.7743    
         Zn3       1.0000    0.79860   0.08844   0.33596   Biso      1.000     Zn          0.772513  
         Zn4       1.0000    0.20140   0.91156   0.66404   Biso      1.000     Zn          0.772513 