
##########################################################################
#               Crystallographic Information Format file
#               Produced by PyCifRW module
#
#  This is a CIF file.  CIF has been adopted by the International
#  Union of Crystallography as the standard for data archiving and
#  transmission.
#
#  For information on this file format, follow the CIF links at
#  http://www.iucr.org
##########################################################################

data_image0

_cell_length_a                          9.73
_cell_length_b                          11.755
_cell_length_c                          12.509
_cell_angle_alpha                       62.698
_cell_angle_beta                        71.906
_cell_angle_gamma                       75.299
_symmetry_space_group_name_H-M          'P 1'
_symmetry_int_tables_number             1
loop_
  _symmetry_equiv_pos_as_xyz
         'x, y, z' 
loop_
  _atom_site_label
  _atom_site_occupancy
  _atom_site_fract_x
  _atom_site_fract_y
  _atom_site_fract_z
  _atom_site_thermal_displace_type
  _atom_site_B_iso_or_equiv
  _atom_site_type_symbol
  _atom_site_charge
         C1        1.0000    0.41620   0.72390   0.97390   Biso      1.000     C          -0.16485  
         C2        1.0000    0.28360   0.67490   0.02130   Biso      1.000     C          -0.001372           
         C3        1.0000    0.89340   0.24710   0.62920   Biso      1.000     C          0.008539  
         C4        1.0000    0.92140   0.23250   0.51970   Biso      1.000     C          -0.160712           
         C5        1.0000    0.91550   0.34160   0.40920   Biso      1.000     C          -0.010196           
         C6        1.0000    0.87460   0.46290   0.41050   Biso      1.000     C          -0.23374499999999998          
         C7        1.0000    0.83600   0.47680   0.52050   Biso      1.000     C          0.343525  
         C8        1.0000    0.84940   0.36800   0.63110   Biso      1.000     C          -0.260437           
         C9        1.0000    0.26950   0.55460   0.11970   Biso      1.000     C          -0.22273600000000002          
         C10       1.0000    0.58380   0.27610   0.02610   Biso      1.000     C          -0.164851           
         C11       1.0000    0.73050   0.44540   0.88030   Biso      1.000     C          -0.22273400000000002          
         C12       1.0000    0.61150   0.51690   0.82770   Biso      1.000     C          0.332293  
         C13       1.0000    0.47820   0.47100   0.87710   Biso      1.000     C          -0.255158           
         C14       1.0000    0.46370   0.35110   0.97670   Biso      1.000     C          0.012825  
         C15       1.0000    0.04320   0.66980   0.71250   Biso      1.000     C          0.608061  
         C16       1.0000    0.08850   0.87110   0.25330   Biso      1.000     C          0.634718  
         C17       1.0000    0.84380   0.25040   0.03420   Biso      1.000     C          0.620556  
         C18       1.0000    0.71640   0.32510   0.97870   Biso      1.000     C          -0.001371           
         C19       1.0000    0.38850   0.48310   0.17230   Biso      1.000     C          0.332293  
         C20       1.0000    0.31800   0.30390   0.03170   Biso      1.000     C          0.594955  
         C21       1.0000    0.52180   0.52900   0.12290   Biso      1.000     C          -0.255161           
         C22       1.0000    0.08450   0.65840   0.59080   Biso      1.000     C          -0.010194           
         C23       1.0000    0.12540   0.53710   0.58950   Biso      1.000     C          -0.23374499999999998          
         C24       1.0000    0.68200   0.69610   0.96830   Biso      1.000     C          0.594953  
         C25       1.0000    0.10660   0.75290   0.37080   Biso      1.000     C          0.008537000000000001          
         C26       1.0000    0.15620   0.74960   0.96580   Biso      1.000     C          0.620555  
         C27       1.0000    0.16400   0.52320   0.47950   Biso      1.000     C          0.343525  
         C28       1.0000    0.15060   0.63200   0.36890   Biso      1.000     C          -0.260437           
         C29       1.0000    0.95680   0.33020   0.28750   Biso      1.000     C          0.608063  
         C30       1.0000    0.53630   0.64890   0.02330   Biso      1.000     C          0.012825  
         C31       1.0000    0.91150   0.12890   0.74670   Biso      1.000     C          0.634716  
         C32       1.0000    0.07860   0.76750   0.48030   Biso      1.000     C          -0.160711           
         H1        1.0000    0.55700   0.67810   0.71880   Biso      1.000     H          0.418459  
         H2        1.0000    0.12700   0.46420   0.66350   Biso      1.000     H          0.146116  
         H3        1.0000    0.17100   0.62310   0.29520   Biso      1.000     H          0.126177  
         H4        1.0000    0.39820   0.52000   0.84380   Biso      1.000     H          0.14599600000000001           
         H5        1.0000    0.05600   0.84950   0.47980   Biso      1.000     H          0.139596  
         H6        1.0000    0.82900   0.37690   0.70480   Biso      1.000     H          0.126177  
         H7        1.0000    0.60180   0.48000   0.15620   Biso      1.000     H          0.145995  
         H8        1.0000    0.44300   0.32190   0.28120   Biso      1.000     H          0.418462  
         H9        1.0000    0.57530   0.19430   0.09000   Biso      1.000     H          0.135245  
         H10       1.0000    0.87300   0.53580   0.33650   Biso      1.000     H          0.14611400000000002           
         H11       1.0000    0.74510   0.59610   0.58280   Biso      1.000     H          0.379763  
         H12       1.0000    0.94400   0.15050   0.52020   Biso      1.000     H          0.139596  
         H13       1.0000    0.42470   0.80570   0.91000   Biso      1.000     H          0.135238  
         H14       1.0000    0.25490   0.40390   0.41720   Biso      1.000     H          0.379763  
         H15       1.0000    0.18110   0.52170   0.15040   Biso      1.000     H          0.14418499999999998           
         H16       1.0000    0.81890   0.47830   0.84960   Biso      1.000     H          0.14418599999999998           
         Mn1       1.0000    0.91354   0.83195   0.86195   Biso      1.000     Mn          0.9466129999999999  
         Mn2       1.0000    0.08646   0.16805   0.13805   Biso      1.000     Mn          0.946629  
         Mn3       1.0000    0.00000   0.00000   0.00000   Biso      1.000     Mn          1.0576370000000002  
         Mn4       1.0000    0.00000   0.50000   0.00000   Biso      1.000     Mn          1.1093030000000002  
         O1        1.0000    0.69100   0.81100   0.89160   Biso      1.000     O          -0.533384           
         O2        1.0000    0.79150   0.61970   0.00270   Biso      1.000     O          -0.5927279999999999           
         O3        1.0000    0.14170   0.87050   0.91370   Biso      1.000     O          -0.57621  
         O4        1.0000    0.06210   0.68680   0.97200   Biso      1.000     O          -0.56855  
         O5        1.0000    0.89610   0.02520   0.74950   Biso      1.000     O          -0.531335           
         O6        1.0000    0.94510   0.14140   0.82970   Biso      1.000     O          -0.581761           
         O7        1.0000    0.99040   0.21970   0.28860   Biso      1.000     O          -0.52982  
         O8        1.0000    0.95440   0.43590   0.19260   Biso      1.000     O          -0.588778           
         O9        1.0000    0.36510   0.36880   0.27350   Biso      1.000     O          -0.49325600000000003          
         O10       1.0000    0.63490   0.63120   0.72650   Biso      1.000     O          -0.49325399999999997          
         O11       1.0000    0.30900   0.18900   0.10840   Biso      1.000     O          -0.5333829999999999           
         O12       1.0000    0.20850   0.38030   0.99730   Biso      1.000     O          -0.592726           
         O13       1.0000    0.85830   0.12950   0.08630   Biso      1.000     O          -0.57621  
         O14       1.0000    0.93790   0.31320   0.02800   Biso      1.000     O          -0.56855  
         O15       1.0000    0.10390   0.97480   0.25050   Biso      1.000     O          -0.5313359999999999           
         O16       1.0000    0.05490   0.85860   0.17030   Biso      1.000     O          -0.581758           
         O17       1.0000    0.00960   0.78030   0.71140   Biso      1.000     O          -0.5298189999999999           
         O18       1.0000    0.04560   0.56410   0.80740   Biso      1.000     O          -0.588781           
         O19       1.0000    0.20990   0.40040   0.48580   Biso      1.000     O          -0.51607  
         O20       1.0000    0.79010   0.59960   0.51420   Biso      1.000     O          -0.51607 