
##########################################################################
#               Crystallographic Information Format file
#               Produced by PyCifRW module
#
#  This is a CIF file.  CIF has been adopted by the International
#  Union of Crystallography as the standard for data archiving and
#  transmission.
#
#  For information on this file format, follow the CIF links at
#  http://www.iucr.org
##########################################################################

data_image0

_cell_length_a                          13.0721
_cell_length_b                          13.0721
_cell_length_c                          11.1466
_cell_angle_alpha                       90
_cell_angle_beta                        90
_cell_angle_gamma                       90
_symmetry_space_group_name_H-M          'P 1'
_symmetry_int_tables_number             1
loop_
  _symmetry_equiv_pos_as_xyz
         'x, y, z' 
loop_
  _atom_site_label
  _atom_site_occupancy
  _atom_site_fract_x
  _atom_site_fract_y
  _atom_site_fract_z
  _atom_site_thermal_displace_type
  _atom_site_B_iso_or_equiv
  _atom_site_type_symbol
  _atom_site_charge
         C1        1.0000    0.55370   0.32670   0.29600   Biso      1.000     C          0.603436  
         C2        1.0000    0.54670   0.64640   0.73880   Biso      1.000     C          -0.031307999999999996         
         C3        1.0000    0.31340   0.86830   0.14250   Biso      1.000     C          0.612481  
         C4        1.0000    0.30910   0.09740   0.50990   Biso      1.000     C          0.613644  
         C5        1.0000    0.44630   0.67330   0.79600   Biso      1.000     C          0.599658  
         C6        1.0000    0.66060   0.42480   0.56860   Biso      1.000     C          0.617264  
         C7        1.0000    0.33940   0.57520   0.06860   Biso      1.000     C          0.613128  
         C8        1.0000    0.84020   0.01060   0.95210   Biso      1.000     C          -0.10834400000000001          
         C9        1.0000    0.88450   0.08330   0.87860   Biso      1.000     C          -0.082611           
         C10       1.0000    0.27480   0.31820   0.20430   Biso      1.000     C          -0.08988099999999999          
         C11       1.0000    0.42480   0.33940   0.81860   Biso      1.000     C          0.607953  
         C12       1.0000    0.67330   0.55370   0.04600   Biso      1.000     C          0.6037710000000001  
         C13       1.0000    0.09740   0.69090   0.75990   Biso      1.000     C          0.607024  
         C14       1.0000    0.86830   0.68660   0.39250   Biso      1.000     C          0.611935  
         C15       1.0000    0.64640   0.45330   0.98880   Biso      1.000     C          -0.031769           
         C16       1.0000    0.55440   0.44320   0.93040   Biso      1.000     C          -0.116405           
         C17       1.0000    0.83710   0.11900   0.77680   Biso      1.000     C          -0.10469400000000001          
         C18       1.0000    0.52580   0.34770   0.88170   Biso      1.000     C          -0.023313           
         C19       1.0000    0.58940   0.26500   0.89420   Biso      1.000     C          -0.08326499999999999          
         C20       1.0000    0.73790   0.08640   0.75280   Biso      1.000     C          -0.029914999999999997         
         C21       1.0000    0.68180   0.27480   0.95430   Biso      1.000     C          -0.089393           
         C22       1.0000    0.71200   0.36850   0.00150   Biso      1.000     C          -0.07473099999999999          
         C23       1.0000    0.68930   0.01800   0.82850   Biso      1.000     C          -0.128082           
         C24       1.0000    0.01990   0.73990   0.67890   Biso      1.000     C          -0.034267           
         C25       1.0000    0.98200   0.68930   0.57850   Biso      1.000     C          -0.129822           
         C26       1.0000    0.73990   0.98010   0.92890   Biso      1.000     C          -0.035991           
         C27       1.0000    0.91360   0.73790   0.50280   Biso      1.000     C          -0.029549000000000002         
         C28       1.0000    0.88100   0.83710   0.52680   Biso      1.000     C          -0.105749           
         C29       1.0000    0.15980   0.98940   0.45210   Biso      1.000     C          -0.10831400000000001          
         C30       1.0000    0.91670   0.88450   0.62860   Biso      1.000     C          -0.082135           
         C31       1.0000    0.36850   0.28800   0.25150   Biso      1.000     C          -0.073384           
         C32       1.0000    0.01060   0.15980   0.20210   Biso      1.000     C          -0.108261           
         C33       1.0000    0.55680   0.55440   0.68040   Biso      1.000     C          -0.11477000000000001          
         C34       1.0000    0.08330   0.11550   0.12860   Biso      1.000     C          -0.08189600000000001          
         C35       1.0000    0.69090   0.90260   0.00990   Biso      1.000     C          0.613401  
         C36       1.0000    0.11550   0.91670   0.37860   Biso      1.000     C          -0.082396           
         C37       1.0000    0.68660   0.13170   0.64250   Biso      1.000     C          0.6125729999999999  
         C38       1.0000    0.16290   0.88100   0.27680   Biso      1.000     C          -0.10463800000000001          
         C39       1.0000    0.26210   0.91360   0.25280   Biso      1.000     C          -0.030116000000000004         
         C40       1.0000    0.45330   0.35360   0.23880   Biso      1.000     C          -0.031532           
         C41       1.0000    0.31070   0.98200   0.32850   Biso      1.000     C          -0.128159           
         C42       1.0000    0.26010   0.01990   0.42890   Biso      1.000     C          -0.036137999999999997         
         C43       1.0000    0.44320   0.44560   0.18040   Biso      1.000     C          -0.11539400000000001          
         C44       1.0000    0.57520   0.66060   0.31860   Biso      1.000     C          0.617108  
         C45       1.0000    0.32670   0.44630   0.54600   Biso      1.000     C          0.6009260000000001  
         C46       1.0000    0.90260   0.30910   0.25990   Biso      1.000     C          0.613559  
         C47       1.0000    0.13170   0.31340   0.89250   Biso      1.000     C          0.6087199999999999  
         C48       1.0000    0.35360   0.54670   0.48880   Biso      1.000     C          -0.031336           
         C49       1.0000    0.26500   0.41060   0.14420   Biso      1.000     C          -0.081592           
         C50       1.0000    0.44560   0.55680   0.43040   Biso      1.000     C          -0.11564100000000001          
         C51       1.0000    0.47420   0.65230   0.38170   Biso      1.000     C          -0.025437           
         C52       1.0000    0.65230   0.52580   0.63170   Biso      1.000     C          -0.025488999999999998         
         C53       1.0000    0.11900   0.16290   0.02680   Biso      1.000     C          -0.10456099999999999          
         C54       1.0000    0.08640   0.26210   0.00280   Biso      1.000     C          -0.028839           
         C55       1.0000    0.73500   0.58940   0.64420   Biso      1.000     C          -0.08189  
         C56       1.0000    0.01800   0.31070   0.07850   Biso      1.000     C          -0.128717           
         C57       1.0000    0.98010   0.26010   0.17890   Biso      1.000     C          -0.035525           
         C58       1.0000    0.63150   0.71200   0.75150   Biso      1.000     C          -0.072825           
         C59       1.0000    0.34770   0.47420   0.13170   Biso      1.000     C          -0.024432           
         C60       1.0000    0.28800   0.63150   0.50150   Biso      1.000     C          -0.072112           
         C61       1.0000    0.72520   0.68180   0.70430   Biso      1.000     C          -0.089192           
         C62       1.0000    0.31820   0.72520   0.45430   Biso      1.000     C          -0.08956499999999999          
         C63       1.0000    0.41060   0.73500   0.39420   Biso      1.000     C          -0.082103           
         C64       1.0000    0.98940   0.84020   0.70210   Biso      1.000     C          -0.109143           
         H1        1.0000    0.21810   0.27590   0.21310   Biso      1.000     H          0.10447999999999999           
         H2        1.0000    0.49930   0.48890   0.17300   Biso      1.000     H          0.113728  
         H3        1.0000    0.20200   0.42950   0.11230   Biso      1.000     H          0.11853699999999999           
         H4        1.0000    0.01740   0.87650   0.76590   Biso      1.000     H          0.11947999999999999           
         H5        1.0000    0.62260   0.99730   0.81220   Biso      1.000     H          0.132141  
         H6        1.0000    0.87050   0.16390   0.72530   Biso      1.000     H          0.126447  
         H7        1.0000    0.94860   0.10890   0.89870   Biso      1.000     H          0.101002  
         H8        1.0000    0.50070   0.51110   0.67300   Biso      1.000     H          0.114579  
         H9        1.0000    0.79800   0.57050   0.61230   Biso      1.000     H          0.11804400000000001           
         H10       1.0000    0.78190   0.72410   0.71310   Biso      1.000     H          0.104724  
         H11       1.0000    0.62460   0.77630   0.79240   Biso      1.000     H          0.117328  
         H12       1.0000    0.37740   0.00270   0.31220   Biso      1.000     H          0.132183  
         H13       1.0000    0.12950   0.83610   0.22530   Biso      1.000     H          0.126618  
         H14       1.0000    0.05140   0.89110   0.39870   Biso      1.000     H          0.101254  
         H15       1.0000    0.37540   0.22370   0.29240   Biso      1.000     H          0.117222  
         H16       1.0000    0.87650   0.98260   0.01590   Biso      1.000     H          0.119426  
         H17       1.0000    0.12350   0.01740   0.51590   Biso      1.000     H          0.11944600000000001           
         H18       1.0000    0.51110   0.49930   0.92300   Biso      1.000     H          0.114418  
         H19       1.0000    0.57050   0.20200   0.86230   Biso      1.000     H          0.11808800000000001           
         H20       1.0000    0.72410   0.21810   0.96310   Biso      1.000     H          0.104495  
         H21       1.0000    0.77630   0.37540   0.04240   Biso      1.000     H          0.11698599999999999           
         H22       1.0000    0.00270   0.62260   0.56220   Biso      1.000     H          0.132518  
         H23       1.0000    0.83610   0.87050   0.47530   Biso      1.000     H          0.126547  
         H24       1.0000    0.89110   0.94860   0.64870   Biso      1.000     H          0.101297  
         H25       1.0000    0.42950   0.79800   0.36230   Biso      1.000     H          0.1181    
         H26       1.0000    0.48890   0.50070   0.42300   Biso      1.000     H          0.1137    
         H27       1.0000    0.22370   0.62460   0.54240   Biso      1.000     H          0.11778699999999999           
         H28       1.0000    0.99730   0.37740   0.06220   Biso      1.000     H          0.13276500000000002           
         H29       1.0000    0.16390   0.12950   0.97530   Biso      1.000     H          0.126789  
         H30       1.0000    0.10890   0.05140   0.14870   Biso      1.000     H          0.101496  
         H31       1.0000    0.98260   0.12350   0.26590   Biso      1.000     H          0.11960799999999999           
         H32       1.0000    0.27590   0.78190   0.46310   Biso      1.000     H          0.10469300000000001           
         Mn1       1.0000    0.24177   0.51143   0.81134   Biso      1.000     Mn          0.952793  
         Mn2       1.0000    0.48857   0.24177   0.56134   Biso      1.000     Mn          1.0904690000000001  
         Mn3       1.0000    0.71964   0.24817   0.40987   Biso      1.000     Mn          1.004256  
         Mn4       1.0000    0.75823   0.48857   0.31134   Biso      1.000     Mn          1.0903559999999999  
         Mn5       1.0000    0.24817   0.28036   0.65987   Biso      1.000     Mn          1.004435  
         Mn6       1.0000    0.51143   0.75823   0.06134   Biso      1.000     Mn          1.090792  
         Mn7       1.0000    0.28036   0.75183   0.90987   Biso      1.000     Mn          1.003933  
         Mn8       1.0000    0.75183   0.71964   0.15987   Biso      1.000     Mn          0.999986  
         O1        1.0000    0.16850   0.25530   0.81570   Biso      1.000     O          -0.554057           
         O2        1.0000    0.87730   0.39860   0.23590   Biso      1.000     O          -0.549806           
         O3        1.0000    0.86800   0.25680   0.34410   Biso      1.000     O          -0.569315           
         O4        1.0000    0.25610   0.44490   0.62620   Biso      1.000     O          -0.561222           
         O5        1.0000    0.37100   0.36510   0.51450   Biso      1.000     O          -0.576459           
         O6        1.0000    0.59100   0.72980   0.24030   Biso      1.000     O          -0.569611           
         O7        1.0000    0.64330   0.59450   0.34860   Biso      1.000     O          -0.5902390000000001           
         O8        1.0000    0.12830   0.40860   0.88590   Biso      1.000     O          -0.535115           
         O9        1.0000    0.35670   0.40550   0.84860   Biso      1.000     O          -0.565301           
         O10       1.0000    0.74470   0.16850   0.56570   Biso      1.000     O          -0.557537           
         O11       1.0000    0.62900   0.63490   0.01450   Biso      1.000     O          -0.5793550000000001           
         O12       1.0000    0.60140   0.87730   0.98590   Biso      1.000     O          -0.550085           
         O13       1.0000    0.74320   0.86800   0.09410   Biso      1.000     O          -0.568695           
         O14       1.0000    0.55510   0.25610   0.37620   Biso      1.000     O          -0.5831029999999999           
         O15       1.0000    0.63490   0.37100   0.26450   Biso      1.000     O          -0.57898  
         O16       1.0000    0.27020   0.59100   0.99030   Biso      1.000     O          -0.5478729999999999           
         O17       1.0000    0.40550   0.64330   0.09860   Biso      1.000     O          -0.5889770000000001           
         O18       1.0000    0.87170   0.59140   0.38590   Biso      1.000     O          -0.567724           
         O19       1.0000    0.83150   0.74470   0.31570   Biso      1.000     O          -0.556171           
         O20       1.0000    0.12270   0.60140   0.73590   Biso      1.000     O          -0.518841           
         O21       1.0000    0.13200   0.74320   0.84410   Biso      1.000     O          -0.5678270000000001           
         O22       1.0000    0.74390   0.55510   0.12620   Biso      1.000     O          -0.5829   
         O23       1.0000    0.59450   0.35670   0.59860   Biso      1.000     O          -0.590106           
         O24       1.0000    0.72980   0.40900   0.49030   Biso      1.000     O          -0.5704359999999999           
         O25       1.0000    0.36510   0.62900   0.76450   Biso      1.000     O          -0.559311           
         O26       1.0000    0.44490   0.74390   0.87620   Biso      1.000     O          -0.582005           
         O27       1.0000    0.59140   0.12830   0.63590   Biso      1.000     O          -0.567523           
         O28       1.0000    0.39860   0.12270   0.48590   Biso      1.000     O          -0.550122           
         O29       1.0000    0.25530   0.83150   0.06570   Biso      1.000     O          -0.557217           
         O30       1.0000    0.40860   0.87170   0.13590   Biso      1.000     O          -0.5675060000000001           
         O31       1.0000    0.40900   0.27020   0.74030   Biso      1.000     O          -0.571965           
         O32       1.0000    0.25680   0.13200   0.59410   Biso      1.000     O          -0.569519 