
##########################################################################
#               Crystallographic Information Format file
#               Produced by PyCifRW module
#
#  This is a CIF file.  CIF has been adopted by the International
#  Union of Crystallography as the standard for data archiving and
#  transmission.
#
#  For information on this file format, follow the CIF links at
#  http://www.iucr.org
##########################################################################

data_image0

_cell_length_a                          11.5178
_cell_length_b                          12.4126
_cell_length_c                          13.1708
_cell_angle_alpha                       94.261
_cell_angle_beta                        92.978
_cell_angle_gamma                       93.134
_symmetry_space_group_name_H-M          'P 1'
_symmetry_int_tables_number             1
loop_
  _symmetry_equiv_pos_as_xyz
         'x, y, z' 
loop_
  _atom_site_label
  _atom_site_occupancy
  _atom_site_fract_x
  _atom_site_fract_y
  _atom_site_fract_z
  _atom_site_thermal_displace_type
  _atom_site_B_iso_or_equiv
  _atom_site_type_symbol
  _atom_site_charge
         C1        1.0000    0.77860   0.66930   0.85740   Biso      1.000     C          -0.118526           
         C2        1.0000    0.66750   0.81460   0.80410   Biso      1.000     C          -0.105301           
         C3        1.0000    0.26210   0.17510   0.27770   Biso      1.000     C          -0.017759           
         C4        1.0000    0.72070   0.56860   0.41640   Biso      1.000     C          0.56598   
         C5        1.0000    0.28430   0.09010   0.35320   Biso      1.000     C          0.565284  
         C6        1.0000    0.15050   0.32030   0.22280   Biso      1.000     C          -0.015813           
         C7        1.0000    0.84950   0.67970   0.77720   Biso      1.000     C          -0.015809           
         C8        1.0000    0.71570   0.90990   0.64680   Biso      1.000     C          0.565284  
         C9        1.0000    0.73790   0.82490   0.72230   Biso      1.000     C          -0.017759           
         C10       1.0000    0.96880   0.13660   0.57000   Biso      1.000     C          -0.142854           
         C11       1.0000    0.22140   0.33070   0.14260   Biso      1.000     C          -0.118523           
         C12       1.0000    0.81070   0.21190   0.65490   Biso      1.000     C          -0.123378           
         C13       1.0000    0.33250   0.18540   0.19590   Biso      1.000     C          -0.105301           
         C14       1.0000    0.89140   0.30270   0.70670   Biso      1.000     C          -0.130993           
         C15       1.0000    0.63630   0.52510   0.58110   Biso      1.000     C          -0.119112           
         C16       1.0000    0.95100   0.35820   0.54830   Biso      1.000     C          -0.124751           
         C17       1.0000    0.17250   0.24370   0.29210   Biso      1.000     C          -0.130141           
         C18       1.0000    0.31380   0.26390   0.12760   Biso      1.000     C          -0.006962           
         C19       1.0000    0.86260   0.27300   0.49450   Biso      1.000     C          -0.123617           
         C20       1.0000    0.55310   0.47090   0.74250   Biso      1.000     C          0.570779  
         C21       1.0000    0.39200   0.28030   0.04280   Biso      1.000     C          0.579894  
         C22       1.0000    0.05120   0.22310   0.63030   Biso      1.000     C          -0.134078           
         C23       1.0000    0.05240   0.39430   0.23700   Biso      1.000     C          0.570305  
         C24       1.0000    0.64140   0.59120   0.50090   Biso      1.000     C          -0.0159   
         C25       1.0000    0.56310   0.54720   0.66000   Biso      1.000     C          -0.013665           
         C26       1.0000    0.57300   0.67830   0.49960   Biso      1.000     C          -0.115195           
         C27       1.0000    0.42710   0.79800   0.57500   Biso      1.000     C          0.571988  
         C28       1.0000    0.49730   0.63650   0.65810   Biso      1.000     C          -0.106626           
         C29       1.0000    0.03120   0.86340   0.43000   Biso      1.000     C          -0.142854           
         C30       1.0000    0.36370   0.47490   0.41890   Biso      1.000     C          -0.119112           
         C31       1.0000    0.50110   0.70260   0.57840   Biso      1.000     C          -0.004944           
         C32       1.0000    0.82750   0.75630   0.70790   Biso      1.000     C          -0.130141           
         C33       1.0000    0.43690   0.45280   0.34000   Biso      1.000     C          -0.013665           
         C34       1.0000    0.94880   0.77690   0.36970   Biso      1.000     C          -0.134078           
         C35       1.0000    0.13740   0.72700   0.50550   Biso      1.000     C          -0.123617           
         C36       1.0000    0.27930   0.43140   0.58360   Biso      1.000     C          0.56598   
         C37       1.0000    0.04900   0.64180   0.45170   Biso      1.000     C          -0.124751           
         C38       1.0000    0.50270   0.36350   0.34190   Biso      1.000     C          -0.106626           
         C39       1.0000    0.10860   0.69730   0.29330   Biso      1.000     C          -0.130993           
         C40       1.0000    0.57290   0.20200   0.42500   Biso      1.000     C          0.571988  
         C41       1.0000    0.42700   0.32170   0.50040   Biso      1.000     C          -0.115198           
         C42       1.0000    0.49890   0.29740   0.42160   Biso      1.000     C          -0.004944           
         C43       1.0000    0.35860   0.40880   0.49910   Biso      1.000     C          -0.015898           
         C44       1.0000    0.94760   0.60570   0.76300   Biso      1.000     C          0.570305  
         C45       1.0000    0.68620   0.73610   0.87240   Biso      1.000     C          -0.006962           
         C46       1.0000    0.44690   0.52910   0.25750   Biso      1.000     C          0.570779  
         C47       1.0000    0.60800   0.71970   0.95720   Biso      1.000     C          0.579894  
         C48       1.0000    0.18930   0.78810   0.34510   Biso      1.000     C          -0.123378           
         Cd1       1.0000    0.72349   0.04160   0.47506   Biso      1.000     Cd          0.919209  
         Cd2       1.0000    0.12088   0.46578   0.72660   Biso      1.000     Cd          0.911392  
         Cd3       1.0000    0.47107   0.68328   0.12148   Biso      1.000     Cd          0.998953  
         Cd4       1.0000    0.52893   0.31672   0.87852   Biso      1.000     Cd          0.998953  
         Cd5       1.0000    0.87912   0.53422   0.27340   Biso      1.000     Cd          0.911392  
         Cd6       1.0000    0.27651   0.95840   0.52494   Biso      1.000     Cd          0.919209  
         H1        1.0000    0.44950   0.65240   0.71130   Biso      1.000     H          0.131103  
         H2        1.0000    0.57500   0.72170   0.44510   Biso      1.000     H          0.120691  
         H3        1.0000    0.11250   0.74830   0.57290   Biso      1.000     H          0.112202  
         H4        1.0000    0.19160   0.84910   0.30310   Biso      1.000     H          0.110182  
         H5        1.0000    0.03700   0.92780   0.39270   Biso      1.000     H          0.103149  
         H6        1.0000    0.26760   0.76360   0.35290   Biso      1.000     H          0.122167  
         H7        1.0000    0.98370   0.63150   0.49430   Biso      1.000     H          0.11224   
         H8        1.0000    0.08240   0.71700   0.22640   Biso      1.000     H          0.106795  
         H9        1.0000    0.99980   0.88300   0.49530   Biso      1.000     H          0.104721  
         H10       1.0000    0.12710   0.23850   0.34810   Biso      1.000     H          0.119921  
         H11       1.0000    0.15130   0.63230   0.28410   Biso      1.000     H          0.114381  
         H12       1.0000    0.20750   0.38330   0.09740   Biso      1.000     H          0.126079  
         H13       1.0000    0.68200   0.46570   0.58220   Biso      1.000     H          0.121731  
         H14       1.0000    0.39280   0.13930   0.18670   Biso      1.000     H          0.134565  
         H15       1.0000    0.21270   0.69630   0.51320   Biso      1.000     H          0.116108  
         H16       1.0000    0.08530   0.57340   0.44210   Biso      1.000     H          0.112727  
         H17       1.0000    0.12040   0.23550   0.59290   Biso      1.000     H          0.114607  
         H18       1.0000    0.87960   0.76450   0.40710   Biso      1.000     H          0.114607  
         H19       1.0000    0.31800   0.53430   0.41780   Biso      1.000     H          0.121731  
         H20       1.0000    0.60720   0.86070   0.81330   Biso      1.000     H          0.134565  
         H21       1.0000    0.79250   0.61670   0.90260   Biso      1.000     H          0.126079  
         H22       1.0000    0.42500   0.27830   0.55490   Biso      1.000     H          0.120691  
         H23       1.0000    0.55050   0.34760   0.28870   Biso      1.000     H          0.131103  
         H24       1.0000    0.00020   0.11700   0.50470   Biso      1.000     H          0.104721  
         H25       1.0000    0.96300   0.07220   0.60730   Biso      1.000     H          0.103149  
         H26       1.0000    0.80840   0.15090   0.69690   Biso      1.000     H          0.110182  
         H27       1.0000    0.73240   0.23640   0.64710   Biso      1.000     H          0.122167  
         H28       1.0000    0.84870   0.36770   0.71590   Biso      1.000     H          0.114381  
         H29       1.0000    0.91760   0.28300   0.77360   Biso      1.000     H          0.106794  
         H30       1.0000    0.01630   0.36850   0.50570   Biso      1.000     H          0.11224   
         H31       1.0000    0.87290   0.76150   0.65190   Biso      1.000     H          0.119921  
         H32       1.0000    0.91470   0.42660   0.55790   Biso      1.000     H          0.112727  
         H33       1.0000    0.88750   0.25170   0.42710   Biso      1.000     H          0.112202  
         H34       1.0000    0.07500   0.19740   0.69560   Biso      1.000     H          0.107766  
         H35       1.0000    0.92500   0.80260   0.30440   Biso      1.000     H          0.107766  
         H36       1.0000    0.78730   0.30370   0.48680   Biso      1.000     H          0.116108  
         N1        1.0000    0.85210   0.17770   0.55360   Biso      1.000     N          -0.091262           
         N2        1.0000    0.14790   0.82230   0.44640   Biso      1.000     N          -0.091262           
         N3        1.0000    0.99320   0.32550   0.64710   Biso      1.000     N          -0.090091           
         N4        1.0000    0.00680   0.67450   0.35290   Biso      1.000     N          -0.090091           
         O1        1.0000    0.77510   0.90910   0.56990   Biso      1.000     O          -0.567757           
         O2        1.0000    0.21280   0.50710   0.57790   Biso      1.000     O          -0.531063           
         O3        1.0000    0.38930   0.61150   0.26160   Biso      1.000     O          -0.532251           
         O4        1.0000    0.51460   0.50930   0.18640   Biso      1.000     O          -0.541957           
         O5        1.0000    0.63160   0.17340   0.35150   Biso      1.000     O          -0.555243           
         O6        1.0000    0.52170   0.77580   0.96760   Biso      1.000     O          -0.539013           
         O7        1.0000    0.57730   0.15350   0.50580   Biso      1.000     O          -0.557757           
         O8        1.0000    0.28170   0.37500   0.65900   Biso      1.000     O          -0.563856           
         O9        1.0000    0.63030   0.64820   0.01800   Biso      1.000     O          -0.559783           
         O10       1.0000    0.22490   0.09090   0.43010   Biso      1.000     O          -0.567757           
         O11       1.0000    0.00230   0.60720   0.68490   Biso      1.000     O          -0.539672           
         O12       1.0000    0.35890   0.02340   0.33350   Biso      1.000     O          -0.556072           
         O13       1.0000    0.99770   0.39280   0.31510   Biso      1.000     O          -0.539672           
         O14       1.0000    0.42270   0.84650   0.49420   Biso      1.000     O          -0.557757           
         O15       1.0000    0.02640   0.45630   0.16830   Biso      1.000     O          -0.56953  
         O16       1.0000    0.36970   0.35180   0.98200   Biso      1.000     O          -0.559783           
         O17       1.0000    0.61070   0.38850   0.73840   Biso      1.000     O          -0.532251           
         O18       1.0000    0.78720   0.49290   0.42210   Biso      1.000     O          -0.531063           
         O19       1.0000    0.71830   0.62500   0.34100   Biso      1.000     O          -0.563856           
         O20       1.0000    0.36840   0.82660   0.64850   Biso      1.000     O          -0.555243           
         O21       1.0000    0.48540   0.49070   0.81360   Biso      1.000     O          -0.541957           
         O22       1.0000    0.47830   0.22420   0.03240   Biso      1.000     O          -0.539013           
         O23       1.0000    0.97360   0.54370   0.83170   Biso      1.000     O          -0.56953  
         O24       1.0000    0.64110   0.97660   0.66650   Biso      1.000     O          -0.556072 