
##########################################################################
#               Crystallographic Information Format file
#               Produced by PyCifRW module
#
#  This is a CIF file.  CIF has been adopted by the International
#  Union of Crystallography as the standard for data archiving and
#  transmission.
#
#  For information on this file format, follow the CIF links at
#  http://www.iucr.org
##########################################################################

data_image0

_cell_length_a                          9.6128
_cell_length_b                          11.336
_cell_length_c                          11.906
_cell_angle_alpha                       114.52
_cell_angle_beta                        91.19
_cell_angle_gamma                       106
_symmetry_space_group_name_H-M          'P 1'
_symmetry_int_tables_number             1
loop_
  _symmetry_equiv_pos_as_xyz
         'x, y, z' 
loop_
  _atom_site_label
  _atom_site_occupancy
  _atom_site_fract_x
  _atom_site_fract_y
  _atom_site_fract_z
  _atom_site_thermal_displace_type
  _atom_site_B_iso_or_equiv
  _atom_site_type_symbol
  _atom_site_charge
         C1        1.0000    0.98320   0.89760   0.10760   Biso      1.000     C          0.699334  
         C2        1.0000    0.58530   0.10560   0.24640   Biso      1.000     C          0.684723  
         C3        1.0000    0.01760   0.13850   0.78310   Biso      1.000     C          0.011769  
         C4        1.0000    0.10680   0.83180   0.37520   Biso      1.000     C          0.17996600000000001           
         C5        1.0000    0.46790   0.80920   0.42040   Biso      1.000     C          0.077297  
         C6        1.0000    0.08170   0.51910   0.01670   Biso      1.000     C          0.172978  
         C7        1.0000    0.85980   0.79840   0.36350   Biso      1.000     C          0.072406  
         C8        1.0000    0.72520   0.52530   0.91250   Biso      1.000     C          0.091461  
         C9        1.0000    0.89250   0.14150   0.72850   Biso      1.000     C          -0.18907100000000002          
         C10       1.0000    0.53210   0.19080   0.57960   Biso      1.000     C          0.077296  
         C11       1.0000    0.37450   0.57630   0.07060   Biso      1.000     C          -0.152922           
         C12       1.0000    0.27480   0.47470   0.08750   Biso      1.000     C          0.091465  
         C13       1.0000    0.74310   0.14560   0.43890   Biso      1.000     C          -0.185055           
         C14       1.0000    0.14020   0.20160   0.63650   Biso      1.000     C          0.072405  
         C15       1.0000    0.01680   0.10240   0.89240   Biso      1.000     C          0.699335  
         C16       1.0000    0.32580   0.65600   0.02790   Biso      1.000     C          0.014294999999999999          
         C17       1.0000    0.42850   0.76590   0.00670   Biso      1.000     C          0.668219  
         C18       1.0000    0.61170   0.14120   0.38340   Biso      1.000     C          0.013291999999999998          
         C19       1.0000    0.85470   0.83120   0.26420   Biso      1.000     C          -0.147695           
         C20       1.0000    0.76000   0.17010   0.56290   Biso      1.000     C          0.180356  
         C21       1.0000    0.89320   0.16820   0.62480   Biso      1.000     C          0.17996700000000002           
         C22       1.0000    0.57150   0.23410   0.99330   Biso      1.000     C          0.668219  
         C23       1.0000    0.82360   0.37140   0.99700   Biso      1.000     C          -0.173398           
         C24       1.0000    0.67420   0.34400   0.97210   Biso      1.000     C          0.014294  
         C25       1.0000    0.25690   0.85440   0.56110   Biso      1.000     C          -0.185055           
         C26       1.0000    0.14530   0.16880   0.73580   Biso      1.000     C          -0.14769200000000002          
         C27       1.0000    0.49650   0.83430   0.54360   Biso      1.000     C          -0.157771           
         C28       1.0000    0.62550   0.42370   0.92940   Biso      1.000     C          -0.15291400000000002          
         C29       1.0000    0.10750   0.85850   0.27150   Biso      1.000     C          -0.189073           
         C30       1.0000    0.50350   0.16570   0.45640   Biso      1.000     C          -0.15777  
         C31       1.0000    0.91830   0.48090   0.98330   Biso      1.000     C          0.172978  
         C32       1.0000    0.98240   0.86150   0.21690   Biso      1.000     C          0.011774  
         C33       1.0000    0.41470   0.89440   0.75360   Biso      1.000     C          0.684723  
         C34       1.0000    0.38830   0.85880   0.61660   Biso      1.000     C          0.013293000000000001          
         C35       1.0000    0.24000   0.82990   0.43710   Biso      1.000     C          0.180357  
         C36       1.0000    0.17640   0.62860   0.00300   Biso      1.000     C          -0.173395           
         H1        1.0000    0.41460   0.16520   0.42360   Biso      1.000     H          0.128734  
         H2        1.0000    0.47440   0.59140   0.08790   Biso      1.000     H          0.119527  
         H3        1.0000    0.81900   0.13200   0.39280   Biso      1.000     H          0.135473  
         H4        1.0000    0.23250   0.16720   0.76970   Biso      1.000     H          0.129857  
         H5        1.0000    0.80610   0.12530   0.76130   Biso      1.000     H          0.121857  
         H6        1.0000    0.46040   0.21010   0.62920   Biso      1.000     H          0.079029  
         H7        1.0000    0.58540   0.83480   0.57640   Biso      1.000     H          0.128734  
         H8        1.0000    0.22770   0.22650   0.60780   Biso      1.000     H          0.083204  
         H9        1.0000    0.30990   0.42420   0.11920   Biso      1.000     H          0.085785  
         H10       1.0000    0.69010   0.57580   0.88080   Biso      1.000     H          0.085786  
         H11       1.0000    0.77230   0.77350   0.39220   Biso      1.000     H          0.083204  
         H12       1.0000    0.53960   0.78990   0.37080   Biso      1.000     H          0.079029  
         H13       1.0000    0.86070   0.31740   0.02260   Biso      1.000     H          0.13334400000000002           
         H14       1.0000    0.76750   0.83280   0.23030   Biso      1.000     H          0.129858  
         H15       1.0000    0.13930   0.68260   0.97740   Biso      1.000     H          0.13334400000000002           
         H16       1.0000    0.18100   0.86800   0.60720   Biso      1.000     H          0.135473  
         H17       1.0000    0.52560   0.40860   0.91210   Biso      1.000     H          0.119527  
         H18       1.0000    0.19390   0.87470   0.23870   Biso      1.000     H          0.121857  
         N1        1.0000    0.86910   0.55570   0.93900   Biso      1.000     N          -0.286775           
         N2        1.0000    0.01790   0.20010   0.57870   Biso      1.000     N          -0.299039           
         N3        1.0000    0.13090   0.44430   0.06100   Biso      1.000     N          -0.28677600000000003          
         N4        1.0000    0.34680   0.81050   0.36760   Biso      1.000     N          -0.285587           
         N5        1.0000    0.98210   0.79990   0.42130   Biso      1.000     N          -0.299039           
         N6        1.0000    0.65320   0.18950   0.63240   Biso      1.000     N          -0.285587           
         O1        1.0000    0.46900   0.11770   0.20910   Biso      1.000     O          -0.711892           
         O2        1.0000    0.12770   0.08730   0.92830   Biso      1.000     O          -0.66091  
         O3        1.0000    0.89780   0.08770   0.93690   Biso      1.000     O          -0.733789           
         O4        1.0000    0.44230   0.23820   0.00500   Biso      1.000     O          -0.672793           
         O5        1.0000    0.38960   0.85990   0.00310   Biso      1.000     O          -0.727584           
         O6        1.0000    0.32020   0.93190   0.81730   Biso      1.000     O          -0.637556           
         O7        1.0000    0.61040   0.14010   0.99690   Biso      1.000     O          -0.727584           
         O8        1.0000    0.53100   0.88230   0.79090   Biso      1.000     O          -0.711892           
         O9        1.0000    0.10220   0.91230   0.06310   Biso      1.000     O          -0.733789           
         O10       1.0000    0.87230   0.91270   0.07170   Biso      1.000     O          -0.66091  
         O11       1.0000    0.55770   0.76180   0.99500   Biso      1.000     O          -0.672793           
         O12       1.0000    0.67980   0.06810   0.18270   Biso      1.000     O          -0.637556           
         Tb1       1.0000    0.69330   0.95520   0.97100   Biso      1.000     Tb          2.138919  
         Tb2       1.0000    0.30670   0.04480   0.02900   Biso      1.000     Tb          2.13892 