
##########################################################################
#               Crystallographic Information Format file
#               Produced by PyCifRW module
#
#  This is a CIF file.  CIF has been adopted by the International
#  Union of Crystallography as the standard for data archiving and
#  transmission.
#
#  For information on this file format, follow the CIF links at
#  http://www.iucr.org
##########################################################################

data_image0

_cell_length_a                          9.6547
_cell_length_b                          11.3195
_cell_length_c                          11.9856
_cell_angle_alpha                       114.773
_cell_angle_beta                        91.448
_cell_angle_gamma                       106.416
_symmetry_space_group_name_H-M          'P 1'
_symmetry_int_tables_number             1
loop_
  _symmetry_equiv_pos_as_xyz
         'x, y, z' 
loop_
  _atom_site_label
  _atom_site_occupancy
  _atom_site_fract_x
  _atom_site_fract_y
  _atom_site_fract_z
  _atom_site_thermal_displace_type
  _atom_site_B_iso_or_equiv
  _atom_site_type_symbol
  _atom_site_charge
         C1        1.0000    0.53210   0.19060   0.58140   Biso      1.000     C          0.070167  
         C2        1.0000    0.49350   0.83270   0.54060   Biso      1.000     C          -0.156395           
         C3        1.0000    0.62570   0.42410   0.92780   Biso      1.000     C          -0.15446700000000002          
         C4        1.0000    0.85630   0.83310   0.26360   Biso      1.000     C          -0.151296           
         C5        1.0000    0.72830   0.52630   0.91150   Biso      1.000     C          0.0893    
         C6        1.0000    0.46790   0.80940   0.41860   Biso      1.000     C          0.070159  
         C7        1.0000    0.74330   0.14530   0.44120   Biso      1.000     C          -0.188371           
         C8        1.0000    0.41500   0.89470   0.74970   Biso      1.000     C          0.607744  
         C9        1.0000    0.86110   0.80190   0.36330   Biso      1.000     C          0.071549  
         C10       1.0000    0.91930   0.48190   0.98480   Biso      1.000     C          0.168939  
         C11       1.0000    0.56700   0.23650   0.99390   Biso      1.000     C          0.5969979999999999  
         C12       1.0000    0.89110   0.14010   0.72840   Biso      1.000     C          -0.190813           
         C13       1.0000    0.82420   0.37600   0.00190   Biso      1.000     C          -0.17771199999999998          
         C14       1.0000    0.01630   0.13720   0.78310   Biso      1.000     C          0.020819  
         C15       1.0000    0.13890   0.19810   0.63670   Biso      1.000     C          0.071559  
         C16       1.0000    0.61260   0.14180   0.38660   Biso      1.000     C          0.022757  
         C17       1.0000    0.23910   0.82880   0.43440   Biso      1.000     C          0.175046  
         C18       1.0000    0.10470   0.82940   0.37230   Biso      1.000     C          0.178828  
         C19       1.0000    0.89530   0.17060   0.62770   Biso      1.000     C          0.178836  
         C20       1.0000    0.98570   0.89730   0.10780   Biso      1.000     C          0.606982  
         C21       1.0000    0.32590   0.65340   0.02620   Biso      1.000     C          0.024281  
         C22       1.0000    0.98370   0.86280   0.21690   Biso      1.000     C          0.020819999999999998          
         C23       1.0000    0.17580   0.62400   0.99810   Biso      1.000     C          -0.177716           
         C24       1.0000    0.14370   0.16690   0.73640   Biso      1.000     C          -0.151292           
         C25       1.0000    0.10890   0.85990   0.27160   Biso      1.000     C          -0.19081099999999998          
         C26       1.0000    0.50650   0.16730   0.45940   Biso      1.000     C          -0.156389           
         C27       1.0000    0.43300   0.76350   0.00610   Biso      1.000     C          0.596988  
         C28       1.0000    0.08070   0.51810   0.01520   Biso      1.000     C          0.168942  
         C29       1.0000    0.38740   0.85820   0.61340   Biso      1.000     C          0.022756000000000002          
         C30       1.0000    0.25670   0.85470   0.55880   Biso      1.000     C          -0.188372           
         C31       1.0000    0.58500   0.10530   0.25030   Biso      1.000     C          0.607726  
         C32       1.0000    0.27170   0.47370   0.08850   Biso      1.000     C          0.089296  
         C33       1.0000    0.76090   0.17120   0.56560   Biso      1.000     C          0.175049  
         C34       1.0000    0.37430   0.57590   0.07220   Biso      1.000     C          -0.154455           
         C35       1.0000    0.67410   0.34660   0.97380   Biso      1.000     C          0.024276  
         C36       1.0000    0.01430   0.10270   0.89220   Biso      1.000     C          0.6069859999999999  
         Eu1       1.0000    0.30842   0.04460   0.02861   Biso      1.000     Eu          1.371415  
         Eu2       1.0000    0.69158   0.95540   0.97139   Biso      1.000     Eu          1.371423  
         H1        1.0000    0.52610   0.40770   0.90830   Biso      1.000     H          0.12405799999999999           
         H2        1.0000    0.58100   0.83130   0.57340   Biso      1.000     H          0.129387  
         H3        1.0000    0.69480   0.57720   0.87970   Biso      1.000     H          0.099585  
         H4        1.0000    0.76950   0.83390   0.22900   Biso      1.000     H          0.132918  
         H5        1.0000    0.18200   0.86940   0.60500   Biso      1.000     H          0.137497  
         H6        1.0000    0.54090   0.79330   0.37070   Biso      1.000     H          0.084339  
         H7        1.0000    0.77440   0.78050   0.39350   Biso      1.000     H          0.087085  
         H8        1.0000    0.47390   0.59230   0.09170   Biso      1.000     H          0.12405799999999999           
         H9        1.0000    0.81800   0.13060   0.39500   Biso      1.000     H          0.137495  
         H10       1.0000    0.80400   0.12160   0.75890   Biso      1.000     H          0.130654  
         H11       1.0000    0.23050   0.16610   0.77100   Biso      1.000     H          0.132917  
         H12       1.0000    0.86040   0.32500   0.03180   Biso      1.000     H          0.13934100000000002           
         H13       1.0000    0.41900   0.16870   0.42660   Biso      1.000     H          0.129387  
         H14       1.0000    0.22560   0.21950   0.60650   Biso      1.000     H          0.087085  
         H15       1.0000    0.45910   0.20670   0.62930   Biso      1.000     H          0.08433600000000001           
         H16       1.0000    0.13960   0.67500   0.96820   Biso      1.000     H          0.139345  
         H17       1.0000    0.19600   0.87840   0.24110   Biso      1.000     H          0.130658  
         H18       1.0000    0.30520   0.42280   0.12030   Biso      1.000     H          0.09958600000000001           
         N1        1.0000    0.01820   0.19950   0.58080   Biso      1.000     N          -0.268433           
         N2        1.0000    0.98180   0.80050   0.41920   Biso      1.000     N          -0.268418           
         N3        1.0000    0.12790   0.44370   0.06140   Biso      1.000     N          -0.237236           
         N4        1.0000    0.87210   0.55630   0.93860   Biso      1.000     N          -0.23724  
         N5        1.0000    0.65570   0.19160   0.63550   Biso      1.000     N          -0.265548           
         N6        1.0000    0.34430   0.80840   0.36450   Biso      1.000     N          -0.265523           
         O1        1.0000    0.10260   0.90870   0.06210   Biso      1.000     O          -0.537401           
         O2        1.0000    0.67990   0.06870   0.18630   Biso      1.000     O          -0.533184           
         O3        1.0000    0.60320   0.14050   0.99930   Biso      1.000     O          -0.5573779999999999           
         O4        1.0000    0.44010   0.24290   0.00560   Biso      1.000     O          -0.5589390000000001           
         O5        1.0000    0.53270   0.88650   0.78910   Biso      1.000     O          -0.576645           
         O6        1.0000    0.12600   0.08730   0.92900   Biso      1.000     O          -0.515898           
         O7        1.0000    0.87400   0.91270   0.07100   Biso      1.000     O          -0.515893           
         O8        1.0000    0.55990   0.75710   0.99440   Biso      1.000     O          -0.558948           
         O9        1.0000    0.32010   0.93130   0.81370   Biso      1.000     O          -0.533207           
         O10       1.0000    0.39680   0.85950   0.00070   Biso      1.000     O          -0.5573640000000001           
         O11       1.0000    0.89740   0.09130   0.93790   Biso      1.000     O          -0.537387           
         O12       1.0000    0.46730   0.11350   0.21090   Biso      1.000     O          -0.5766399999999999 