
##########################################################################
#               Crystallographic Information Format file
#               Produced by PyCifRW module
#
#  This is a CIF file.  CIF has been adopted by the International
#  Union of Crystallography as the standard for data archiving and
#  transmission.
#
#  For information on this file format, follow the CIF links at
#  http://www.iucr.org
##########################################################################

data_image0

_cell_length_a                          10.0893
_cell_length_b                          26.5212
_cell_length_c                          9.7898
_cell_angle_alpha                       90
_cell_angle_beta                        90
_cell_angle_gamma                       90
_symmetry_space_group_name_H-M          'P 1'
_symmetry_int_tables_number             1
loop_
  _symmetry_equiv_pos_as_xyz
         'x, y, z' 
loop_
  _atom_site_label
  _atom_site_occupancy
  _atom_site_fract_x
  _atom_site_fract_y
  _atom_site_fract_z
  _atom_site_thermal_displace_type
  _atom_site_B_iso_or_equiv
  _atom_site_type_symbol
  _atom_site_charge
         C1        1.0000    0.44780   0.77635   0.31430   Biso      1.000     C          -0.10119700000000001          
         C2        1.0000    0.12580   0.95920   0.26330   Biso      1.000     C          0.171303  
         C3        1.0000    0.26030   0.00772   0.16500   Biso      1.000     C          0.159547  
         C4        1.0000    0.85270   0.80307   0.11840   Biso      1.000     C          -0.07379  
         C5        1.0000    0.04100   0.77629   0.57300   Biso      1.000     C          -0.08593200000000001          
         C6        1.0000    0.14120   0.80252   0.51240   Biso      1.000     C          -0.146878           
         C7        1.0000    0.24740   0.77707   0.45010   Biso      1.000     C          0.055386000000000005          
         C8        1.0000    0.35270   0.80307   0.38160   Biso      1.000     C          -0.073777           
         C9        1.0000    0.86810   0.85959   0.12150   Biso      1.000     C          0.599946  
         C10       1.0000    0.36810   0.85959   0.37850   Biso      1.000     C          0.5999439999999999  
         C11       1.0000    0.73970   0.99228   0.83500   Biso      1.000     C          0.159548  
         C12       1.0000    0.74740   0.77707   0.04990   Biso      1.000     C          0.055388  
         C13       1.0000    0.37420   0.04080   0.76330   Biso      1.000     C          0.171303  
         C14       1.0000    0.23970   0.99228   0.66500   Biso      1.000     C          0.159547  
         C15       1.0000    0.05220   0.22365   0.81430   Biso      1.000     C          -0.10119700000000001          
         C16       1.0000    0.45900   0.22371   0.07300   Biso      1.000     C          -0.08593200000000001          
         C17       1.0000    0.35880   0.19748   0.01240   Biso      1.000     C          -0.146878           
         C18       1.0000    0.55220   0.22365   0.68570   Biso      1.000     C          -0.101198           
         C19       1.0000    0.63190   0.14041   0.62150   Biso      1.000     C          0.599945  
         C20       1.0000    0.95900   0.22371   0.42700   Biso      1.000     C          -0.08593300000000001          
         C21       1.0000    0.13190   0.35959   0.87850   Biso      1.000     C          0.5999439999999999  
         C22       1.0000    0.26030   0.49228   0.16500   Biso      1.000     C          0.159547  
         C23       1.0000    0.44780   0.72365   0.31430   Biso      1.000     C          -0.10119500000000001          
         C24       1.0000    0.04100   0.72371   0.57300   Biso      1.000     C          -0.085927           
         C25       1.0000    0.14120   0.69748   0.51240   Biso      1.000     C          -0.146879           
         C26       1.0000    0.24740   0.72293   0.45010   Biso      1.000     C          0.055386000000000005          
         C27       1.0000    0.35270   0.69693   0.38160   Biso      1.000     C          -0.073777           
         C28       1.0000    0.36810   0.64041   0.37850   Biso      1.000     C          0.5999439999999999  
         C29       1.0000    0.64730   0.19693   0.61840   Biso      1.000     C          -0.073777           
         C30       1.0000    0.75260   0.22293   0.54990   Biso      1.000     C          0.055386000000000005          
         C31       1.0000    0.85880   0.19748   0.48760   Biso      1.000     C          -0.146878           
         C32       1.0000    0.37420   0.45920   0.76330   Biso      1.000     C          0.171303  
         C33       1.0000    0.23970   0.50772   0.66500   Biso      1.000     C          0.159547  
         C34       1.0000    0.05220   0.27635   0.81430   Biso      1.000     C          -0.10119500000000001          
         C35       1.0000    0.45900   0.27629   0.07300   Biso      1.000     C          -0.08592799999999999          
         C36       1.0000    0.35880   0.30252   0.01240   Biso      1.000     C          -0.146879           
         C37       1.0000    0.25260   0.27707   0.95010   Biso      1.000     C          0.055386000000000005          
         C38       1.0000    0.14730   0.30307   0.88160   Biso      1.000     C          -0.073777           
         C39       1.0000    0.25260   0.22293   0.95010   Biso      1.000     C          0.055386000000000005          
         C40       1.0000    0.14730   0.19693   0.88160   Biso      1.000     C          -0.073777           
         C41       1.0000    0.64120   0.80252   0.98760   Biso      1.000     C          -0.146887           
         C42       1.0000    0.12580   0.54080   0.26330   Biso      1.000     C          0.171303  
         C43       1.0000    0.13190   0.14041   0.87850   Biso      1.000     C          0.599945  
         C44       1.0000    0.63190   0.35959   0.62150   Biso      1.000     C          0.599946  
         C45       1.0000    0.64730   0.30307   0.61840   Biso      1.000     C          -0.07379  
         C46       1.0000    0.75260   0.27707   0.54990   Biso      1.000     C          0.055388  
         C47       1.0000    0.85880   0.30252   0.48760   Biso      1.000     C          -0.146887           
         C48       1.0000    0.62580   0.54080   0.23670   Biso      1.000     C          0.171303  
         C49       1.0000    0.95900   0.27629   0.42700   Biso      1.000     C          -0.08591900000000001          
         C50       1.0000    0.55220   0.27635   0.68570   Biso      1.000     C          -0.10118200000000001          
         C51       1.0000    0.76030   0.00772   0.33500   Biso      1.000     C          0.159548  
         C52       1.0000    0.73970   0.50772   0.83500   Biso      1.000     C          0.159547  
         C53       1.0000    0.94780   0.72365   0.18570   Biso      1.000     C          -0.101198           
         C54       1.0000    0.87420   0.45920   0.73670   Biso      1.000     C          0.171303  
         C55       1.0000    0.76030   0.49228   0.33500   Biso      1.000     C          0.159547  
         C56       1.0000    0.54100   0.72371   0.92700   Biso      1.000     C          -0.08593300000000001          
         C57       1.0000    0.87420   0.04080   0.73670   Biso      1.000     C          0.171302  
         C58       1.0000    0.86810   0.64041   0.12150   Biso      1.000     C          0.5999439999999999  
         C59       1.0000    0.85270   0.69693   0.11840   Biso      1.000     C          -0.073776           
         C60       1.0000    0.54100   0.77629   0.92700   Biso      1.000     C          -0.08591900000000001          
         C61       1.0000    0.74740   0.72293   0.04990   Biso      1.000     C          0.055386000000000005          
         C62       1.0000    0.62580   0.95920   0.23670   Biso      1.000     C          0.171303  
         C63       1.0000    0.94780   0.77635   0.18570   Biso      1.000     C          -0.10118200000000001          
         C64       1.0000    0.64120   0.69748   0.98760   Biso      1.000     C          -0.146878           
         H1        1.0000    0.41180   0.43700   0.82590   Biso      1.000     H          0.11716300000000002           
         H2        1.0000    0.58820   0.93700   0.17410   Biso      1.000     H          0.11716300000000002           
         H3        1.0000    0.36070   0.33760   0.01240   Biso      1.000     H          0.11144000000000001           
         H4        1.0000    0.63930   0.66240   0.98760   Biso      1.000     H          0.11144000000000001           
         H5        1.0000    0.52810   0.29360   0.11480   Biso      1.000     H          0.10878099999999999           
         H6        1.0000    0.01410   0.70650   0.23250   Biso      1.000     H          0.114836  
         H7        1.0000    0.51410   0.70650   0.26750   Biso      1.000     H          0.114836  
         H8        1.0000    0.58820   0.56300   0.17410   Biso      1.000     H          0.11716300000000002           
         H9        1.0000    0.98590   0.29350   0.76750   Biso      1.000     H          0.114836  
         H10       1.0000    0.47190   0.70640   0.88520   Biso      1.000     H          0.10878099999999999           
         H11       1.0000    0.16430   0.52630   0.64410   Biso      1.000     H          0.1115    
         H12       1.0000    0.83570   0.47370   0.35590   Biso      1.000     H          0.1115    
         H13       1.0000    0.13930   0.66240   0.51240   Biso      1.000     H          0.11144000000000001           
         H14       1.0000    0.08820   0.56300   0.32590   Biso      1.000     H          0.11716300000000002           
         H15       1.0000    0.97190   0.70640   0.61480   Biso      1.000     H          0.10878099999999999           
         H16       1.0000    0.66430   0.97370   0.85590   Biso      1.000     H          0.1115    
         H17       1.0000    0.86070   0.16240   0.48760   Biso      1.000     H          0.11144000000000001           
         H18       1.0000    0.36070   0.16240   0.01240   Biso      1.000     H          0.11144000000000001           
         H19       1.0000    0.91180   0.06300   0.67410   Biso      1.000     H          0.11716300000000002           
         H20       1.0000    0.52810   0.20640   0.11480   Biso      1.000     H          0.10878199999999999           
         H21       1.0000    0.98590   0.20650   0.76750   Biso      1.000     H          0.114836  
         H22       1.0000    0.47190   0.79360   0.88520   Biso      1.000     H          0.10878099999999999           
         H23       1.0000    0.16430   0.97370   0.64410   Biso      1.000     H          0.1115    
         H24       1.0000    0.41180   0.06300   0.82590   Biso      1.000     H          0.11716300000000002           
         H25       1.0000    0.63930   0.83760   0.98760   Biso      1.000     H          0.11144000000000001           
         H26       1.0000    0.33570   0.47370   0.14410   Biso      1.000     H          0.1115    
         H27       1.0000    0.91180   0.43700   0.67410   Biso      1.000     H          0.11716300000000002           
         H28       1.0000    0.48590   0.20650   0.73250   Biso      1.000     H          0.114836  
         H29       1.0000    0.66430   0.52630   0.85590   Biso      1.000     H          0.1115    
         H30       1.0000    0.48590   0.29350   0.73250   Biso      1.000     H          0.11483499999999999           
         H31       1.0000    0.02810   0.29360   0.38520   Biso      1.000     H          0.10878099999999999           
         H32       1.0000    0.13930   0.83760   0.51240   Biso      1.000     H          0.11144000000000001           
         H33       1.0000    0.97190   0.79360   0.61480   Biso      1.000     H          0.10878199999999999           
         H34       1.0000    0.86070   0.33760   0.48760   Biso      1.000     H          0.11144000000000001           
         H35       1.0000    0.51410   0.79350   0.26750   Biso      1.000     H          0.114836  
         H36       1.0000    0.33570   0.02630   0.14410   Biso      1.000     H          0.1115    
         H37       1.0000    0.08820   0.93700   0.32590   Biso      1.000     H          0.11716300000000002           
         H38       1.0000    0.01410   0.79350   0.23250   Biso      1.000     H          0.11483499999999999           
         H39       1.0000    0.83570   0.02630   0.35590   Biso      1.000     H          0.1115    
         H40       1.0000    0.02810   0.20640   0.38520   Biso      1.000     H          0.10878199999999999           
         N1        1.0000    0.24850   0.52187   0.27570   Biso      1.000     N          -0.300199           
         N2        1.0000    0.06490   0.52480   0.15410   Biso      1.000     N          -0.177094           
         N3        1.0000    0.15210   0.49282   0.08960   Biso      1.000     N          -0.18493199999999999          
         N4        1.0000    0.74850   0.97813   0.22430   Biso      1.000     N          -0.300199           
         N5        1.0000    0.65210   0.00718   0.41040   Biso      1.000     N          -0.18493900000000002          
         N6        1.0000    0.43510   0.47520   0.65410   Biso      1.000     N          -0.177094           
         N7        1.0000    0.74850   0.52187   0.22430   Biso      1.000     N          -0.300199           
         N8        1.0000    0.56490   0.52480   0.34590   Biso      1.000     N          -0.177094           
         N9        1.0000    0.65210   0.49282   0.41040   Biso      1.000     N          -0.18493199999999999          
         N10       1.0000    0.84790   0.99282   0.91040   Biso      1.000     N          -0.18494000000000002          
         N11       1.0000    0.93510   0.02480   0.84590   Biso      1.000     N          -0.177086           
         N12       1.0000    0.75150   0.02187   0.72430   Biso      1.000     N          -0.300199           
         N13       1.0000    0.75150   0.47813   0.72430   Biso      1.000     N          -0.300199           
         N14       1.0000    0.93510   0.47520   0.84590   Biso      1.000     N          -0.177095           
         N15       1.0000    0.84790   0.50718   0.91040   Biso      1.000     N          -0.18493099999999998          
         N16       1.0000    0.25150   0.02187   0.77570   Biso      1.000     N          -0.300198           
         N17       1.0000    0.43510   0.02480   0.65410   Biso      1.000     N          -0.177094           
         N18       1.0000    0.34790   0.99282   0.58960   Biso      1.000     N          -0.18493099999999998          
         N19       1.0000    0.56490   0.97520   0.34590   Biso      1.000     N          -0.177087           
         N20       1.0000    0.24850   0.97813   0.27570   Biso      1.000     N          -0.300199           
         N21       1.0000    0.06490   0.97520   0.15410   Biso      1.000     N          -0.177095           
         N22       1.0000    0.15210   0.00718   0.08960   Biso      1.000     N          -0.18493099999999998          
         N23       1.0000    0.25150   0.47813   0.77570   Biso      1.000     N          -0.300199           
         N24       1.0000    0.34790   0.50718   0.58960   Biso      1.000     N          -0.18493199999999999          
         O1        1.0000    0.83070   0.88624   0.02190   Biso      1.000     O          -0.5672470000000001           
         O2        1.0000    0.92210   0.87927   0.22060   Biso      1.000     O          -0.578809           
         O3        1.0000    0.42210   0.87927   0.27940   Biso      1.000     O          -0.578808           
         O4        1.0000    0.57790   0.12073   0.72060   Biso      1.000     O          -0.578808           
         O5        1.0000    0.42210   0.62073   0.27940   Biso      1.000     O          -0.578808           
         O6        1.0000    0.83070   0.61376   0.02190   Biso      1.000     O          -0.567248           
         O7        1.0000    0.33070   0.61376   0.47810   Biso      1.000     O          -0.567248           
         O8        1.0000    0.92210   0.62073   0.22060   Biso      1.000     O          -0.578808           
         O9        1.0000    0.07790   0.37927   0.77940   Biso      1.000     O          -0.578808           
         O10       1.0000    0.16930   0.38624   0.97810   Biso      1.000     O          -0.567248           
         O11       1.0000    0.66930   0.11376   0.52190   Biso      1.000     O          -0.5672470000000001           
         O12       1.0000    0.33070   0.88624   0.47810   Biso      1.000     O          -0.567248           
         O13       1.0000    0.66930   0.38624   0.52190   Biso      1.000     O          -0.567248           
         O14       1.0000    0.07790   0.12073   0.77940   Biso      1.000     O          -0.578808           
         O15       1.0000    0.16930   0.11376   0.97810   Biso      1.000     O          -0.5672470000000001           
         O16       1.0000    0.57790   0.37927   0.72060   Biso      1.000     O          -0.578808           
         Zn1       1.0000    0.61552   0.45585   0.58667   Biso      1.000     Zn          0.666161  
         Zn2       1.0000    0.38448   0.95585   0.41333   Biso      1.000     Zn          0.6661600000000001  
         Zn3       1.0000    0.88448   0.95585   0.08667   Biso      1.000     Zn          0.666162  
         Zn4       1.0000    0.11552   0.45585   0.91333   Biso      1.000     Zn          0.666161  
         Zn5       1.0000    0.38448   0.54415   0.41333   Biso      1.000     Zn          0.666161  
         Zn6       1.0000    0.61552   0.04415   0.58667   Biso      1.000     Zn          0.666161  
         Zn7       1.0000    0.11552   0.04415   0.91333   Biso      1.000     Zn          0.6661590000000001  
         Zn8       1.0000    0.88448   0.54415   0.08667   Biso      1.000     Zn          0.6661600000000001 