
##########################################################################
#               Crystallographic Information Format file
#               Produced by PyCifRW module
#
#  This is a CIF file.  CIF has been adopted by the International
#  Union of Crystallography as the standard for data archiving and
#  transmission.
#
#  For information on this file format, follow the CIF links at
#  http://www.iucr.org
##########################################################################

data_image0

_cell_length_a                          9.507
_cell_length_b                          9.507
_cell_length_c                          17.443
_cell_angle_alpha                       90
_cell_angle_beta                        90
_cell_angle_gamma                       120
_symmetry_space_group_name_H-M          'P 1'
_symmetry_int_tables_number             1
loop_
  _symmetry_equiv_pos_as_xyz
         'x, y, z' 
loop_
  _atom_site_label
  _atom_site_occupancy
  _atom_site_fract_x
  _atom_site_fract_y
  _atom_site_fract_z
  _atom_site_thermal_displace_type
  _atom_site_B_iso_or_equiv
  _atom_site_type_symbol
  _atom_site_charge
         C1        1.0000    0.35010   0.18500   0.10460   Biso      1.000     C          0.686171  
         C2        1.0000    0.69320   0.59910   0.44860   Biso      1.000     C          -0.195226           
         C3        1.0000    0.83490   0.64990   0.39540   Biso      1.000     C          0.6861729999999999  
         C4        1.0000    0.16510   0.81500   0.89540   Biso      1.000     C          0.686168  
         C5        1.0000    0.30680   0.90590   0.94860   Biso      1.000     C          -0.19523  
         C6        1.0000    0.90590   0.30680   0.44860   Biso      1.000     C          -0.19523  
         C7        1.0000    0.81500   0.16510   0.39540   Biso      1.000     C          0.686168  
         C8        1.0000    0.64990   0.83490   0.89540   Biso      1.000     C          0.6861729999999999  
         C9        1.0000    0.59910   0.69320   0.94860   Biso      1.000     C          -0.19522799999999998          
         C10       1.0000    0.40090   0.09410   0.44860   Biso      1.000     C          -0.19522799999999998          
         C11       1.0000    0.35010   0.18500   0.39540   Biso      1.000     C          0.686171  
         C12       1.0000    0.09410   0.40090   0.94860   Biso      1.000     C          -0.195227           
         C13       1.0000    0.09410   0.40090   0.55140   Biso      1.000     C          -0.19522899999999999          
         C14       1.0000    0.18500   0.35010   0.60460   Biso      1.000     C          0.686171  
         C15       1.0000    0.81500   0.16510   0.10460   Biso      1.000     C          0.686167  
         C16       1.0000    0.40090   0.09410   0.05140   Biso      1.000     C          -0.19522899999999999          
         C17       1.0000    0.59910   0.69320   0.55140   Biso      1.000     C          -0.195227           
         C18       1.0000    0.64990   0.83490   0.60460   Biso      1.000     C          0.6861729999999999  
         C19       1.0000    0.69320   0.59910   0.05140   Biso      1.000     C          -0.19522799999999998          
         C20       1.0000    0.90590   0.30680   0.05140   Biso      1.000     C          -0.19522799999999998          
         C21       1.0000    0.18500   0.35010   0.89540   Biso      1.000     C          0.686171  
         C22       1.0000    0.30680   0.90590   0.55140   Biso      1.000     C          -0.19522899999999999          
         C23       1.0000    0.16510   0.81500   0.60460   Biso      1.000     C          0.686168  
         C24       1.0000    0.83490   0.64990   0.10460   Biso      1.000     C          0.6861729999999999  
         H1        1.0000    0.56930   0.59720   0.91900   Biso      1.000     H          0.131002  
         H2        1.0000    0.32500   0.83030   0.52270   Biso      1.000     H          0.118351  
         H3        1.0000    0.40280   0.97210   0.58100   Biso      1.000     H          0.131002  
         H4        1.0000    0.32500   0.83030   0.97730   Biso      1.000     H          0.118351  
         H5        1.0000    0.40280   0.97210   0.91900   Biso      1.000     H          0.131002  
         H6        1.0000    0.56930   0.59720   0.58100   Biso      1.000     H          0.131002  
         H7        1.0000    0.50530   0.67500   0.52270   Biso      1.000     H          0.118349  
         H8        1.0000    0.02790   0.43070   0.58100   Biso      1.000     H          0.131     
         H9        1.0000    0.16970   0.49470   0.97730   Biso      1.000     H          0.11835   
         H10       1.0000    0.50530   0.67500   0.97730   Biso      1.000     H          0.118349  
         H11       1.0000    0.16970   0.49470   0.52270   Biso      1.000     H          0.11835   
         H12       1.0000    0.02790   0.43070   0.91900   Biso      1.000     H          0.131     
         H13       1.0000    0.59720   0.56930   0.41900   Biso      1.000     H          0.131002  
         H14       1.0000    0.83030   0.32500   0.02270   Biso      1.000     H          0.118351  
         H15       1.0000    0.67500   0.50530   0.47730   Biso      1.000     H          0.11835   
         H16       1.0000    0.49470   0.16970   0.02270   Biso      1.000     H          0.11835   
         H17       1.0000    0.59720   0.56930   0.08100   Biso      1.000     H          0.131002  
         H18       1.0000    0.67500   0.50530   0.02270   Biso      1.000     H          0.11835   
         H19       1.0000    0.43070   0.02790   0.08100   Biso      1.000     H          0.131     
         H20       1.0000    0.97210   0.40280   0.08100   Biso      1.000     H          0.131001  
         H21       1.0000    0.49470   0.16970   0.47730   Biso      1.000     H          0.11835   
         H22       1.0000    0.43070   0.02790   0.41900   Biso      1.000     H          0.131     
         H23       1.0000    0.83030   0.32500   0.47730   Biso      1.000     H          0.118351  
         H24       1.0000    0.97210   0.40280   0.41900   Biso      1.000     H          0.131002  
         La1       1.0000    0.66667   0.33333   0.25000   Biso      1.000     La          2.012115  
         La2       1.0000    0.33333   0.66667   0.75000   Biso      1.000     La          2.012114  
         La3       1.0000    0.00000   0.00000   0.50000   Biso      1.000     La          1.7615779999999999  
         La4       1.0000    0.00000   0.00000   0.00000   Biso      1.000     La          1.7615779999999999  
         O1        1.0000    0.78540   0.95820   0.59530   Biso      1.000     O          -0.5852689999999999           
         O2        1.0000    0.55000   0.82050   0.65490   Biso      1.000     O          -0.6819609999999999           
         O3        1.0000    0.45000   0.27050   0.15490   Biso      1.000     O          -0.68196  
         O4        1.0000    0.27160   0.00000   0.00000   Biso      1.000     O          -0.204039           
         O5        1.0000    0.00000   0.27160   0.00000   Biso      1.000     O          -0.204042           
         O6        1.0000    0.72950   0.17950   0.15490   Biso      1.000     O          -0.681944           
         O7        1.0000    0.72840   0.72840   0.00000   Biso      1.000     O          -0.204043           
         O8        1.0000    0.82720   0.04180   0.09530   Biso      1.000     O          -0.585263           
         O9        1.0000    0.27160   0.00000   0.50000   Biso      1.000     O          -0.204041           
         O10       1.0000    0.21460   0.17280   0.09530   Biso      1.000     O          -0.5852689999999999           
         O11       1.0000    0.04180   0.82720   0.59530   Biso      1.000     O          -0.585263           
         O12       1.0000    0.95820   0.78540   0.09530   Biso      1.000     O          -0.5852689999999999           
         O13       1.0000    0.82050   0.55000   0.15490   Biso      1.000     O          -0.6819609999999999           
         O14       1.0000    0.95820   0.78540   0.40470   Biso      1.000     O          -0.5852689999999999           
         O15       1.0000    0.27050   0.45000   0.84510   Biso      1.000     O          -0.68196  
         O16       1.0000    0.17280   0.21460   0.90470   Biso      1.000     O          -0.5852689999999999           
         O17       1.0000    0.00000   0.27160   0.50000   Biso      1.000     O          -0.20404  
         O18       1.0000    0.82050   0.55000   0.34510   Biso      1.000     O          -0.6819609999999999           
         O19       1.0000    0.17950   0.72950   0.84510   Biso      1.000     O          -0.681944           
         O20       1.0000    0.04180   0.82720   0.90470   Biso      1.000     O          -0.585263           
         O21       1.0000    0.82720   0.04180   0.40470   Biso      1.000     O          -0.585263           
         O22       1.0000    0.72950   0.17950   0.34510   Biso      1.000     O          -0.681944           
         O23       1.0000    0.55000   0.82050   0.84510   Biso      1.000     O          -0.68196  
         O24       1.0000    0.78540   0.95820   0.90470   Biso      1.000     O          -0.5852689999999999           
         O25       1.0000    0.21460   0.17280   0.40470   Biso      1.000     O          -0.5852689999999999           
         O26       1.0000    0.45000   0.27050   0.34510   Biso      1.000     O          -0.68196  
         O27       1.0000    0.27050   0.45000   0.65490   Biso      1.000     O          -0.68196  
         O28       1.0000    0.17280   0.21460   0.59530   Biso      1.000     O          -0.5852689999999999           
         O29       1.0000    0.17950   0.72950   0.65490   Biso      1.000     O          -0.681944           
         O30       1.0000    0.72840   0.72840   0.50000   Biso      1.000     O          -0.204044 