
##########################################################################
#               Crystallographic Information Format file
#               Produced by PyCifRW module
#
#  This is a CIF file.  CIF has been adopted by the International
#  Union of Crystallography as the standard for data archiving and
#  transmission.
#
#  For information on this file format, follow the CIF links at
#  http://www.iucr.org
##########################################################################

data_image0

_cell_length_a                          9.048
_cell_length_b                          9.465
_cell_length_c                          15.584
_cell_angle_alpha                       90
_cell_angle_beta                        90.79
_cell_angle_gamma                       90
_symmetry_space_group_name_H-M          'P 1'
_symmetry_int_tables_number             1
loop_
  _symmetry_equiv_pos_as_xyz
         'x, y, z' 
loop_
  _atom_site_label
  _atom_site_occupancy
  _atom_site_fract_x
  _atom_site_fract_y
  _atom_site_fract_z
  _atom_site_thermal_displace_type
  _atom_site_B_iso_or_equiv
  _atom_site_type_symbol
  _atom_site_charge
         C1        1.0000    0.09520   0.83300   0.64330   Biso      1.000     C          0.652273  
         C2        1.0000    0.51300   0.85520   0.51340   Biso      1.000     C          -0.11386800000000001          
         C3        1.0000    0.98860   0.93890   0.41890   Biso      1.000     C          -0.10622999999999999          
         C4        1.0000    0.03280   0.85500   0.49030   Biso      1.000     C          -0.119996           
         C5        1.0000    0.04390   0.91740   0.57070   Biso      1.000     C          -0.035815           
         C6        1.0000    0.95610   0.08260   0.42930   Biso      1.000     C          -0.035807           
         C7        1.0000    0.86710   0.32620   0.12820   Biso      1.000     C          0.646496  
         C8        1.0000    0.93470   0.41390   0.06360   Biso      1.000     C          -0.036777           
         C9        1.0000    0.95010   0.56190   0.07540   Biso      1.000     C          -0.12278  
         C10       1.0000    0.01300   0.64480   0.01340   Biso      1.000     C          -0.114203           
         C11       1.0000    0.48860   0.56110   0.91890   Biso      1.000     C          -0.10593599999999999          
         C12       1.0000    0.53280   0.64500   0.99030   Biso      1.000     C          -0.12013199999999999          
         C13       1.0000    0.54390   0.58260   0.07070   Biso      1.000     C          -0.035693           
         C14       1.0000    0.59520   0.66700   0.14330   Biso      1.000     C          0.652334  
         C15       1.0000    0.63290   0.82620   0.37180   Biso      1.000     C          0.647053  
         C16       1.0000    0.56530   0.91390   0.43640   Biso      1.000     C          -0.036479000000000004         
         C17       1.0000    0.54990   0.06190   0.42460   Biso      1.000     C          -0.122492           
         C18       1.0000    0.48700   0.14480   0.48660   Biso      1.000     C          -0.11393699999999998          
         C19       1.0000    0.01140   0.06110   0.58110   Biso      1.000     C          -0.10621099999999999          
         C20       1.0000    0.96720   0.14500   0.50970   Biso      1.000     C          -0.11991099999999999          
         C21       1.0000    0.45010   0.93810   0.57540   Biso      1.000     C          -0.12268  
         C22       1.0000    0.43470   0.08610   0.56360   Biso      1.000     C          -0.036325           
         C23       1.0000    0.90480   0.16700   0.35670   Biso      1.000     C          0.652487  
         C24       1.0000    0.13290   0.67380   0.87180   Biso      1.000     C          0.646888  
         C25       1.0000    0.06530   0.58610   0.93640   Biso      1.000     C          -0.03705  
         C26       1.0000    0.04990   0.43810   0.92460   Biso      1.000     C          -0.12259300000000001          
         C27       1.0000    0.98700   0.35520   0.98660   Biso      1.000     C          -0.114328           
         C28       1.0000    0.36710   0.17380   0.62820   Biso      1.000     C          0.646718  
         C29       1.0000    0.40480   0.33300   0.85670   Biso      1.000     C          0.652748  
         C30       1.0000    0.45610   0.41740   0.92930   Biso      1.000     C          -0.035829           
         C31       1.0000    0.51140   0.43890   0.08110   Biso      1.000     C          -0.10603699999999999          
         C32       1.0000    0.46720   0.35500   0.00970   Biso      1.000     C          -0.11992  
         H1        1.0000    0.08280   0.39670   0.87420   Biso      1.000     H          0.071993  
         H2        1.0000    0.55400   0.74040   0.98330   Biso      1.000     H          0.094359  
         H3        1.0000    0.48120   0.60180   0.86470   Biso      1.000     H          0.088291  
         H4        1.0000    0.02120   0.74170   0.02240   Biso      1.000     H          0.085638  
         H5        1.0000    0.91720   0.60330   0.12580   Biso      1.000     H          0.072508  
         H6        1.0000    0.51880   0.39820   0.13530   Biso      1.000     H          0.08782000000000001           
         H7        1.0000    0.44600   0.25960   0.01670   Biso      1.000     H          0.094615  
         H8        1.0000    0.97880   0.25830   0.97760   Biso      1.000     H          0.086102  
         H9        1.0000    0.58280   0.10330   0.37420   Biso      1.000     H          0.0723    
         H10       1.0000    0.47880   0.24170   0.47760   Biso      1.000     H          0.08612   
         H11       1.0000    0.05400   0.75960   0.48330   Biso      1.000     H          0.094467  
         H12       1.0000    0.98120   0.89820   0.36470   Biso      1.000     H          0.088091  
         H13       1.0000    0.01880   0.10180   0.63530   Biso      1.000     H          0.087918  
         H14       1.0000    0.52120   0.75830   0.52240   Biso      1.000     H          0.08583400000000001           
         H15       1.0000    0.41720   0.89670   0.62580   Biso      1.000     H          0.072484  
         H16       1.0000    0.94600   0.24040   0.51670   Biso      1.000     H          0.094574  
         O1        1.0000    0.39850   0.20310   0.86640   Biso      1.000     O          -0.637335           
         O2        1.0000    0.37610   0.39380   0.78630   Biso      1.000     O          -0.610661           
         O3        1.0000    0.14410   0.80470   0.88610   Biso      1.000     O          -0.6418689999999999           
         O4        1.0000    0.18200   0.61820   0.80490   Biso      1.000     O          -0.628434           
         O5        1.0000    0.89850   0.29690   0.36640   Biso      1.000     O          -0.6372369999999999           
         O6        1.0000    0.87610   0.10620   0.28630   Biso      1.000     O          -0.611058           
         O7        1.0000    0.10150   0.70310   0.63360   Biso      1.000     O          -0.635997           
         O8        1.0000    0.68200   0.88180   0.30490   Biso      1.000     O          -0.628896           
         O9        1.0000    0.60150   0.79690   0.13360   Biso      1.000     O          -0.635896           
         O10       1.0000    0.62390   0.60620   0.21370   Biso      1.000     O          -0.610897           
         O11       1.0000    0.85590   0.19530   0.11390   Biso      1.000     O          -0.6429239999999999           
         O12       1.0000    0.81800   0.38180   0.19510   Biso      1.000     O          -0.627862           
         O13       1.0000    0.31800   0.11820   0.69510   Biso      1.000     O          -0.6278590000000001           
         O14       1.0000    0.35590   0.30470   0.61390   Biso      1.000     O          -0.6427470000000001           
         O15       1.0000    0.12390   0.89380   0.71370   Biso      1.000     O          -0.611247           
         O16       1.0000    0.64410   0.69530   0.38610   Biso      1.000     O          -0.6419590000000001           
         U1        1.0000    0.74313   0.99433   0.17534   Biso      1.000     U          1.41394   
         U2        1.0000    0.75687   0.49433   0.32466   Biso      1.000     U          1.4132930000000001  
         U3        1.0000    0.25687   0.00567   0.82466   Biso      1.000     U          1.413425  
         U4        1.0000    0.24313   0.50567   0.67534   Biso      1.000     U          1.413137 